<?xml version="1.0" encoding="UTF-8"?>

<!-- generated on 2025-07-24 12:42:43 by Eclipse SUMO netedit Version 1.23.1
<neteditConfiguration xmlns:xsi="http://www.w3.org/2001/XMLSchema-instance" xsi:noNamespaceSchemaLocation="http://sumo.dlr.de/xsd/neteditConfiguration.xsd">

    <input>
        <sumo-net-file value="D:\SUMO2UnityPY\SUMOData\Sumo2Unity.net.xml"/>
    </input>

    <output>
        <output-file value="D:\SUMO2UnityPY\SUMOData\Sumo2Unity.net.xml"/>
    </output>

    <processing>
        <offset.disable-normalization value="true"/>
    </processing>

    <junctions>
        <no-turnarounds value="true"/>
    </junctions>

    <netedit>
        <new-network value="false"/>
    </netedit>

</neteditConfiguration>
-->

<net version="1.20" junctionCornerDetail="5" limitTurnSpeed="5.50" xmlns:xsi="http://www.w3.org/2001/XMLSchema-instance" xsi:noNamespaceSchemaLocation="http://sumo.dlr.de/xsd/net_file.xsd">

    <location netOffset="0.00,0.00" convBoundary="-81.28,-50.29,80.07,43.34" origBoundary="10000000000.00,10000000000.00,-10000000000.00,-10000000000.00" projParameter="!"/>

    <edge id=":J1_0" function="internal">
        <lane id=":J1_0_0" index="0" speed="6.54" length="9.08" shape="-2.56,2.91 -2.92,0.44 -3.98,-1.32 -5.73,-2.39 -8.17,-2.75"/>
    </edge>
    <edge id=":J1_1" function="internal">
        <lane id=":J1_1_0" index="0" speed="13.89" length="14.57" shape="-2.56,2.91 -2.38,-11.66"/>
    </edge>
    <edge id=":J1_2" function="internal">
        <lane id=":J1_2_0" index="0" speed="8.00" length="14.27" shape="-2.56,2.91 -2.02,-0.96 -0.37,-3.71 2.40,-5.36 6.29,-5.91"/>
    </edge>
    <edge id=":J1_3" function="internal">
        <lane id=":J1_3_0" index="0" speed="6.50" length="9.08" shape="6.28,-2.71 3.80,-2.36 2.04,-1.31 0.98,0.44 0.64,2.89"/>
    </edge>
    <edge id=":J1_4" function="internal">
        <lane id=":J1_4_0" index="0" speed="13.89" length="14.46" shape="6.28,-2.71 -8.17,-2.75"/>
    </edge>
    <edge id=":J1_5" function="internal">
        <lane id=":J1_5_0" index="0" speed="7.95" length="4.09" shape="6.28,-2.71 2.39,-3.27 2.26,-3.36"/>
    </edge>
    <edge id=":J1_12" function="internal">
        <lane id=":J1_12_0" index="0" speed="7.95" length="10.21" shape="2.26,-3.36 -0.35,-4.96 -1.94,-7.75 -2.38,-11.66"/>
    </edge>
    <edge id=":J1_6" function="internal">
        <lane id=":J1_6_0" index="0" speed="6.45" length="9.03" shape="0.82,-11.56 1.10,-9.09 2.10,-7.33 3.83,-6.27 6.29,-5.91"/>
    </edge>
    <edge id=":J1_7" function="internal">
        <lane id=":J1_7_0" index="0" speed="13.89" length="14.46" shape="0.82,-11.56 0.64,2.89"/>
    </edge>
    <edge id=":J1_8" function="internal">
        <lane id=":J1_8_0" index="0" speed="8.10" length="14.27" shape="0.82,-11.56 0.16,-7.70 -1.56,-4.94 -4.34,-3.29 -8.17,-2.75"/>
    </edge>
    <edge id=":J1_9" function="internal">
        <lane id=":J1_9_0" index="0" speed="6.63" length="9.21" shape="-8.16,-5.95 -5.70,-6.30 -3.91,-7.37 -2.81,-9.15 -2.38,-11.66"/>
    </edge>
    <edge id=":J1_10" function="internal">
        <lane id=":J1_10_0" index="0" speed="13.89" length="14.46" shape="-8.16,-5.95 6.29,-5.91"/>
    </edge>
    <edge id=":J1_11" function="internal">
        <lane id=":J1_11_0" index="0" speed="8.03" length="4.05" shape="-8.16,-5.95 -4.33,-5.39 -4.18,-5.30"/>
    </edge>
    <edge id=":J1_13" function="internal">
        <lane id=":J1_13_0" index="0" speed="8.03" length="10.15" shape="-4.18,-5.30 -1.58,-3.72 0.07,-0.97 0.64,2.89"/>
    </edge>
    <edge id=":J2_0" function="internal">
        <lane id=":J2_0_0" index="0" speed="6.08" length="7.78" shape="81.66,-7.33 81.37,-5.22 80.47,-3.71 78.96,-2.81 76.85,-2.51"/>
    </edge>
    <edge id=":J2_1" function="internal">
        <lane id=":J2_1_0" index="0" speed="3.90" length="2.59" shape="76.86,-5.71 77.56,-5.81 78.06,-6.11 78.36,-6.61 78.46,-7.32"/>
    </edge>
    <edge id=":J3_0" function="internal">
        <lane id=":J3_0_0" index="0" speed="3.90" length="2.56" shape="78.31,-46.58 78.20,-47.28 77.91,-47.77 77.41,-48.07 76.72,-48.18"/>
    </edge>
    <edge id=":J3_1" function="internal">
        <lane id=":J3_1_0" index="0" speed="6.08" length="7.68" shape="76.74,-51.38 78.82,-51.07 80.31,-50.17 81.20,-48.68 81.51,-46.60"/>
    </edge>
    <edge id=":J5_0" function="internal">
        <lane id=":J5_0_0" index="0" speed="3.91" length="2.54" shape="3.47,-48.67 2.79,-48.58 2.29,-48.29 1.98,-47.80 1.86,-47.12"/>
    </edge>
    <edge id=":J5_1" function="internal">
        <lane id=":J5_1_0" index="0" speed="6.08" length="7.61" shape="-1.33,-47.21 -0.98,-49.26 -0.06,-50.72 1.43,-51.59 3.50,-51.87"/>
    </edge>

    <edge id="-E0" from="J1" to="J0" priority="-1">
        <lane id="-E0_0" index="0" speed="13.89" length="73.11" shape="-8.17,-2.75 -81.29,-2.98"/>
    </edge>
    <edge id="-E1" from="J2" to="J1" priority="-1">
        <lane id="-E1_0" index="0" speed="13.89" length="70.56" shape="76.85,-2.51 6.28,-2.71"/>
    </edge>
    <edge id="-E2" from="J3" to="J2" priority="-1">
        <lane id="-E2_0" index="0" speed="13.89" length="39.27" shape="81.51,-46.60 81.66,-7.33"/>
    </edge>
    <edge id="-E5" from="J5" to="J3" priority="-1">
        <lane id="-E5_0" index="0" speed="13.89" length="73.25" shape="3.50,-51.87 76.74,-51.38"/>
    </edge>
    <edge id="-E6" from="J1" to="J5" priority="-1">
        <lane id="-E6_0" index="0" speed="13.89" length="35.57" shape="-2.38,-11.66 -1.33,-47.21"/>
    </edge>
    <edge id="-E7" from="J6" to="J1" priority="-1">
        <lane id="-E7_0" index="0" speed="13.89" length="40.43" shape="-2.31,43.35 -2.56,2.91"/>
    </edge>
    <edge id="E0" from="J0" to="J1" priority="-1">
        <lane id="E0_0" index="0" speed="13.89" length="73.11" shape="-81.28,-6.18 -8.16,-5.95"/>
    </edge>
    <edge id="E1" from="J1" to="J2" priority="-1">
        <lane id="E1_0" index="0" speed="13.89" length="70.56" shape="6.29,-5.91 76.86,-5.71"/>
    </edge>
    <edge id="E2" from="J2" to="J3" priority="-1">
        <lane id="E2_0" index="0" speed="13.89" length="39.27" shape="78.46,-7.32 78.31,-46.58"/>
    </edge>
    <edge id="E5" from="J3" to="J5" priority="-1">
        <lane id="E5_0" index="0" speed="13.89" length="73.25" shape="76.72,-48.18 3.47,-48.67"/>
    </edge>
    <edge id="E6" from="J5" to="J1" priority="-1">
        <lane id="E6_0" index="0" speed="13.89" length="35.57" shape="1.86,-47.12 0.82,-11.56"/>
    </edge>
    <edge id="E7" from="J1" to="J6" priority="-1">
        <lane id="E7_0" index="0" speed="13.89" length="40.43" shape="0.64,2.89 0.89,43.33"/>
    </edge>

    <junction id="J0" type="dead_end" x="-81.28" y="-4.58" incLanes="-E0_0" intLanes="" shape="-81.28,-4.58 -81.29,-1.38 -81.28,-4.58"/>
    <junction id="J1" type="priority" x="-1.00" y="-4.33" incLanes="-E7_0 -E1_0 E6_0 E0_0" intLanes=":J1_0_0 :J1_1_0 :J1_2_0 :J1_3_0 :J1_4_0 :J1_12_0 :J1_6_0 :J1_7_0 :J1_8_0 :J1_9_0 :J1_10_0 :J1_13_0" shape="-4.16,2.92 2.24,2.88 2.68,0.66 3.24,-0.11 4.03,-0.67 5.04,-1.00 6.28,-1.11 6.30,-7.51 4.09,-7.96 3.33,-8.51 2.79,-9.29 2.49,-10.29 2.41,-11.52 -3.98,-11.70 -4.50,-9.39 -5.09,-8.58 -5.89,-8.00 -6.92,-7.66 -8.16,-7.55 -8.18,-1.15 -5.95,-0.69 -5.17,-0.12 -4.61,0.67 -4.27,1.68">
        <request index="0"  response="000000010000" foes="000100010000" cont="0"/>
        <request index="1"  response="111000110000" foes="111100110000" cont="0"/>
        <request index="2"  response="110111110000" foes="110111110000" cont="0"/>
        <request index="3"  response="000000000000" foes="100010000000" cont="0"/>
        <request index="4"  response="000000000000" foes="100110000111" cont="0"/>
        <request index="5"  response="111000000000" foes="111110000110" cont="1"/>
        <request index="6"  response="010000000000" foes="010000000100" cont="0"/>
        <request index="7"  response="110000111000" foes="110000111100" cont="0"/>
        <request index="8"  response="110000110011" foes="110000110111" cont="0"/>
        <request index="9"  response="000000000000" foes="000000100010" cont="0"/>
        <request index="10" response="000000000000" foes="000111100110" cont="0"/>
        <request index="11" response="000000011000" foes="000110111110" cont="1"/>
    </junction>
    <junction id="J2" type="priority" x="80.07" y="-4.10" incLanes="-E2_0 E1_0" intLanes=":J2_0_0 :J2_1_0" shape="83.26,-7.34 76.86,-7.31 76.84,-0.91 80.42,-1.62 81.67,-2.51 82.56,-3.76 83.09,-5.37">
        <request index="0" response="00" foes="00" cont="0"/>
        <request index="1" response="00" foes="00" cont="0"/>
    </junction>
    <junction id="J3" type="priority" x="79.89" y="-49.76" incLanes="E2_0 -E5_0" intLanes=":J3_0_0 :J3_1_0" shape="76.71,-46.58 83.11,-46.60 82.39,-50.12 81.50,-51.36 80.27,-52.25 78.69,-52.79 76.75,-52.98">
        <request index="0" response="00" foes="00" cont="0"/>
        <request index="1" response="00" foes="00" cont="0"/>
    </junction>
    <junction id="J5" type="priority" x="0.36" y="-50.29" incLanes="E5_0 -E6_0" intLanes=":J5_0_0 :J5_1_0" shape="3.46,-47.07 3.51,-53.47 0.01,-52.80 -1.23,-51.94 -2.14,-50.73 -2.70,-49.17 -2.93,-47.26">
        <request index="0" response="00" foes="00" cont="0"/>
        <request index="1" response="00" foes="00" cont="0"/>
    </junction>
    <junction id="J6" type="dead_end" x="-0.71" y="43.34" incLanes="E7_0" intLanes="" shape="-0.71,43.34 2.49,43.32 -0.71,43.34"/>

    <junction id=":J1_12_0" type="internal" x="2.26" y="-3.36" incLanes=":J1_5_0 E0_0" intLanes=":J1_1_0 :J1_2_0 :J1_7_0 :J1_8_0 :J1_9_0 :J1_10_0"/>
    <junction id=":J1_13_0" type="internal" x="-4.18" y="-5.30" incLanes=":J1_11_0 -E1_0" intLanes=":J1_1_0 :J1_2_0 :J1_3_0 :J1_4_0 :J1_7_0 :J1_8_0"/>

    <connection from="-E1" to="E7" fromLane="0" toLane="0" via=":J1_3_0" dir="r" state="M"/>
    <connection from="-E1" to="-E0" fromLane="0" toLane="0" via=":J1_4_0" dir="s" state="M"/>
    <connection from="-E1" to="-E6" fromLane="0" toLane="0" via=":J1_5_0" dir="l" state="m"/>
    <connection from="-E2" to="-E1" fromLane="0" toLane="0" via=":J2_0_0" dir="l" state="M"/>
    <connection from="-E5" to="-E2" fromLane="0" toLane="0" via=":J3_1_0" dir="l" state="M"/>
    <connection from="-E6" to="-E5" fromLane="0" toLane="0" via=":J5_1_0" dir="l" state="M"/>
    <connection from="-E7" to="-E0" fromLane="0" toLane="0" via=":J1_0_0" dir="r" state="m"/>
    <connection from="-E7" to="-E6" fromLane="0" toLane="0" via=":J1_1_0" dir="s" state="m"/>
    <connection from="-E7" to="E1" fromLane="0" toLane="0" via=":J1_2_0" dir="l" state="m"/>
    <connection from="E0" to="-E6" fromLane="0" toLane="0" via=":J1_9_0" dir="r" state="M"/>
    <connection from="E0" to="E1" fromLane="0" toLane="0" via=":J1_10_0" dir="s" state="M"/>
    <connection from="E0" to="E7" fromLane="0" toLane="0" via=":J1_11_0" dir="l" state="m"/>
    <connection from="E1" to="E2" fromLane="0" toLane="0" via=":J2_1_0" dir="r" state="M"/>
    <connection from="E2" to="E5" fromLane="0" toLane="0" via=":J3_0_0" dir="r" state="M"/>
    <connection from="E5" to="E6" fromLane="0" toLane="0" via=":J5_0_0" dir="r" state="M"/>
    <connection from="E6" to="E1" fromLane="0" toLane="0" via=":J1_6_0" dir="r" state="m"/>
    <connection from="E6" to="E7" fromLane="0" toLane="0" via=":J1_7_0" dir="s" state="m"/>
    <connection from="E6" to="-E0" fromLane="0" toLane="0" via=":J1_8_0" dir="l" state="m"/>

    <connection from=":J1_0" to="-E0" fromLane="0" toLane="0" dir="r" state="M"/>
    <connection from=":J1_1" to="-E6" fromLane="0" toLane="0" dir="s" state="M"/>
    <connection from=":J1_2" to="E1" fromLane="0" toLane="0" dir="l" state="M"/>
    <connection from=":J1_3" to="E7" fromLane="0" toLane="0" dir="r" state="M"/>
    <connection from=":J1_4" to="-E0" fromLane="0" toLane="0" dir="s" state="M"/>
    <connection from=":J1_5" to="-E6" fromLane="0" toLane="0" via=":J1_12_0" dir="l" state="m"/>
    <connection from=":J1_12" to="-E6" fromLane="0" toLane="0" dir="l" state="M"/>
    <connection from=":J1_6" to="E1" fromLane="0" toLane="0" dir="r" state="M"/>
    <connection from=":J1_7" to="E7" fromLane="0" toLane="0" dir="s" state="M"/>
    <connection from=":J1_8" to="-E0" fromLane="0" toLane="0" dir="l" state="M"/>
    <connection from=":J1_9" to="-E6" fromLane="0" toLane="0" dir="r" state="M"/>
    <connection from=":J1_10" to="E1" fromLane="0" toLane="0" dir="s" state="M"/>
    <connection from=":J1_11" to="E7" fromLane="0" toLane="0" via=":J1_13_0" dir="l" state="m"/>
    <connection from=":J1_13" to="E7" fromLane="0" toLane="0" dir="l" state="M"/>
    <connection from=":J2_0" to="-E1" fromLane="0" toLane="0" dir="l" state="M"/>
    <connection from=":J2_1" to="E2" fromLane="0" toLane="0" dir="r" state="M"/>
    <connection from=":J3_0" to="E5" fromLane="0" toLane="0" dir="r" state="M"/>
    <connection from=":J3_1" to="-E2" fromLane="0" toLane="0" dir="l" state="M"/>
    <connection from=":J5_0" to="E6" fromLane="0" toLane="0" dir="r" state="M"/>
    <connection from=":J5_1" to="-E5" fromLane="0" toLane="0" dir="l" state="M"/>

</net>
