<?xml version="1.0" encoding="UTF-8"?>

<!-- generated on 2025-07-24 13:16:00 by Eclipse SUMO netedit Version 1.23.1
-->

<additional xmlns:xsi="http://www.w3.org/2001/XMLSchema-instance" xsi:noNamespaceSchemaLocation="http://sumo.dlr.de/xsd/additional_file.xsd">
    <!-- Shapes -->
    <poly id="po_0" type="Terrain" color="red" fill="0" layer="0.00" shape="-116.748480,60.418508 -118.043193,-85.236747 192.903802,-85.236747 194.198515,77.033996 -117.180051,78.760281 -117.180051,54.808083"/>
    <poly id="po_1" type="roadside" color="122,122,122" fill="1" layer="0.00" shape="-81.541256,-0.106255 -9.501942,0.498391 -6.824221,1.448550 -5.701306,3.348868 -4.923904,44.378454 3.800282,44.032941 3.195635,3.089734 3.800282,1.534928 4.923197,1.103038 6.046112,1.189416 77.048890,0.671148 80.676769,-0.279011 83.440867,-2.783975 84.218270,-6.930123 84.045514,-39.235523 83.959136,-47.614196 83.440867,-51.155697 80.676769,-53.487905 76.703377,-54.006174 3.109257,-54.697199 -0.777756,-53.833418 -3.369098,-51.587588 -4.232879,-47.614196 -5.096660,-11.594539 -5.874063,-10.126112 -8.206271,-8.830441 3.800282,-9.262331 2.763745,-11.853673 4.059416,-45.886635 74.975816,-45.109232 74.803060,-8.657685 6.132490,-8.225794 4.145794,-8.657685 -82.145903,-8.830441 -81.800391,-0.019877"/>
    <poly id="po_2" type="residential" color="122,122,122" fill="1" layer="0.00" shape="7.233810,33.524185 6.920258,4.050258 64.404867,4.050258 63.986797,33.942255 7.024775,33.419667"/>
    <poly id="po_3" type="wood" color="154,110,110" fill="1" layer="0.00" shape="-64.674210,-11.418328 -64.569692,-32.739892 -21.822047,-32.112787 -22.658186,-12.045433 -64.465175,-11.836398"/>
</additional>
