<?xml version="1.0" encoding="UTF-8"?>

<!-- generated on 2025-07-25 06:07:17 by Eclipse SUMO netedit Version 1.23.1
-->

<routes xmlns:xsi="http://www.w3.org/2001/XMLSchema-instance" xsi:noNamespaceSchemaLocation="http://sumo.dlr.de/xsd/routes_file.xsd">
    <!-- VTypes -->
    <vType id="301" color="0,0,128"/>
    <vType id="302" color="132,132,132"/>
    <vType id="303" color="86,86,86"/>
    <vType id="304" color="228,58,58"/>
    <vType id="306" color="214,203,203"/>
    <vType id="EgoCar" color="69,56,56"/>
    <!-- Vehicles, persons and containers (sorted by depart) -->
    <flow id="f_1" type="301" begin="0.00" from="E0" to="E7" end="3600.00" vehsPerHour="200"/>
    <flow id="f_2" type="302" begin="0.00" from="-E1" to="-E0" end="3600.00" vehsPerHour="200"/>
    <trip id="f_0.0" depart="580.00" color="36,36,36" from="E0" to="E7" via="E1 E2 E5"/>
</routes>
