<?xml version="1.0" encoding="UTF-8"?>

<!-- generated on 2025-07-25 06:07:18 by Eclipse SUMO sumo Version 1.23.1
-->

<sumoConfiguration xmlns:xsi="http://www.w3.org/2001/XMLSchema-instance" xsi:noNamespaceSchemaLocation="http://sumo.dlr.de/xsd/sumoConfiguration.xsd">

    <input>
        <net-file value="Sumo2Unity.net.xml"/>
        <route-files value="Sumo2Unity.rou.xml"/>
        <additional-files value="Sumo2Unity.Poly.xml"/>
    </input>

</sumoConfiguration>
