<?xml version="1.0" encoding="UTF-8"?>

<!-- generated on 2025-07-25 09:45:19 by Eclipse SUMO netedit Version 1.23.1
<neteditConfiguration xmlns:xsi="http://www.w3.org/2001/XMLSchema-instance" xsi:noNamespaceSchemaLocation="http://sumo.dlr.de/xsd/neteditConfiguration.xsd">

    <input>
        <sumocfg-file value="D:\SUMO2Unity\Scenario2\Sumo2Unity.sumocfg"/>
        <additional-files value="D:\SUMO2Unity\Scenario2\Sumo2Unity.Poly.xml"/>
        <route-files value="D:\SUMO2Unity\Scenario2\Sumo2Unity.rou.xml"/>
        <sumo-net-file value="D:\SUMO2Unity\Scenario2\Sumo2Unity.net.xml"/>
    </input>

    <output>
        <output-file value="D:\SUMO2Unity\Scenario2\Sumo2Unity.net.xml"/>
    </output>

    <processing>
        <offset.disable-normalization value="true"/>
    </processing>

    <junctions>
        <no-turnarounds value="true"/>
    </junctions>

    <netedit>
        <new-network value="false"/>
    </netedit>

</neteditConfiguration>
-->

<net version="1.20" junctionCornerDetail="5" limitTurnSpeed="5.50" xmlns:xsi="http://www.w3.org/2001/XMLSchema-instance" xsi:noNamespaceSchemaLocation="http://sumo.dlr.de/xsd/net_file.xsd">

    <location netOffset="0.00,0.00" convBoundary="-178.61,-95.44,160.15,97.82" origBoundary="10000000000.00,10000000000.00,-10000000000.00,-10000000000.00" projParameter="!"/>

    <edge id=":J1_0" function="internal">
        <lane id=":J1_0_0" index="0" speed="6.54" length="9.13" shape="-7.34,4.55 -9.80,4.87 -11.58,5.91 -12.66,7.67 -13.05,10.16"/>
    </edge>
    <edge id=":J1_1" function="internal">
        <lane id=":J1_1_0" index="0" speed="13.89" length="27.26" shape="-7.34,4.55 -34.57,4.24"/>
        <lane id=":J1_1_1" index="1" speed="13.89" length="27.26" shape="-7.29,1.35 -34.55,1.04"/>
        <lane id=":J1_1_2" index="2" speed="13.89" length="27.26" shape="-7.24,-1.85 -34.53,-2.16"/>
    </edge>
    <edge id=":J1_4" function="internal">
        <lane id=":J1_4_0" index="0" speed="10.36" length="4.89" shape="-7.24,-1.85 -12.07,-2.61"/>
    </edge>
    <edge id=":J1_20" function="internal">
        <lane id=":J1_20_0" index="0" speed="10.36" length="19.64" shape="-12.07,-2.61 -13.88,-2.90 -18.59,-5.82 -21.36,-10.62 -22.21,-17.29"/>
    </edge>
    <edge id=":J1_5" function="internal">
        <lane id=":J1_5_0" index="0" speed="6.50" length="9.03" shape="-12.61,-17.13 -12.30,-14.68 -11.28,-12.91 -9.54,-11.84 -7.10,-11.45"/>
    </edge>
    <edge id=":J1_6" function="internal">
        <lane id=":J1_6_0" index="0" speed="13.89" length="27.30" shape="-12.61,-17.13 -13.05,10.16"/>
        <lane id=":J1_6_1" index="1" speed="13.89" length="27.30" shape="-15.81,-17.19 -16.25,10.11"/>
        <lane id=":J1_6_2" index="2" speed="13.89" length="27.30" shape="-19.01,-17.24 -19.45,10.06"/>
    </edge>
    <edge id=":J1_9" function="internal">
        <lane id=":J1_9_0" index="0" speed="10.42" length="5.00" shape="-19.01,-17.24 -19.80,-12.30"/>
    </edge>
    <edge id=":J1_21" function="internal">
        <lane id=":J1_21_0" index="0" speed="10.42" length="19.63" shape="-19.80,-12.30 -20.07,-10.60 -23.01,-5.87 -27.83,-3.06 -34.53,-2.16"/>
    </edge>
    <edge id=":J1_10" function="internal">
        <lane id=":J1_10_0" index="0" speed="6.60" length="9.25" shape="-34.46,-11.76 -31.93,-12.09 -30.12,-13.14 -29.01,-14.91 -28.61,-17.39"/>
    </edge>
    <edge id=":J1_11" function="internal">
        <lane id=":J1_11_0" index="0" speed="13.89" length="27.33" shape="-34.46,-11.76 -7.10,-11.45"/>
        <lane id=":J1_11_1" index="1" speed="13.89" length="27.33" shape="-34.48,-8.56 -7.15,-8.25"/>
        <lane id=":J1_11_2" index="2" speed="13.89" length="27.33" shape="-34.50,-5.36 -7.19,-5.05"/>
    </edge>
    <edge id=":J1_14" function="internal">
        <lane id=":J1_14_0" index="0" speed="10.35" length="5.14" shape="-34.50,-5.36 -29.42,-4.59"/>
    </edge>
    <edge id=":J1_22" function="internal">
        <lane id=":J1_22_0" index="0" speed="10.35" length="19.48" shape="-29.42,-4.59 -27.82,-4.35 -23.09,-1.45 -20.30,3.36 -19.45,10.06"/>
    </edge>
    <edge id=":J1_15" function="internal">
        <lane id=":J1_15_0" index="0" speed="6.49" length="9.03" shape="-29.05,9.90 -29.36,7.44 -30.39,5.68 -32.12,4.61 -34.57,4.24"/>
    </edge>
    <edge id=":J1_16" function="internal">
        <lane id=":J1_16_0" index="0" speed="13.89" length="27.30" shape="-29.05,9.90 -28.61,-17.39"/>
        <lane id=":J1_16_1" index="1" speed="13.89" length="27.30" shape="-25.85,9.95 -25.41,-17.34"/>
        <lane id=":J1_16_2" index="2" speed="13.89" length="27.30" shape="-22.65,10.00 -22.21,-17.29"/>
    </edge>
    <edge id=":J1_19" function="internal">
        <lane id=":J1_19_0" index="0" speed="10.39" length="5.04" shape="-22.65,10.00 -21.86,5.03"/>
    </edge>
    <edge id=":J1_23" function="internal">
        <lane id=":J1_23_0" index="0" speed="10.39" length="19.56" shape="-21.86,5.03 -21.59,3.33 -18.66,-1.40 -13.86,-4.19 -7.19,-5.05"/>
    </edge>

    <edge id="-E0" from="J1" to="J0" priority="-1">
        <lane id="-E0_0" index="0" speed="13.89" length="144.10" shape="-34.57,4.24 -178.67,3.18"/>
        <lane id="-E0_1" index="1" speed="13.89" length="144.10" shape="-34.55,1.04 -178.65,-0.02"/>
        <lane id="-E0_2" index="2" speed="13.89" length="144.10" shape="-34.53,-2.16 -178.62,-3.22"/>
    </edge>
    <edge id="-E1" from="J2" to="J1" priority="-1">
        <lane id="-E1_0" index="0" speed="13.89" length="167.39" shape="160.03,7.05 -7.34,4.55"/>
        <lane id="-E1_1" index="1" speed="13.89" length="167.39" shape="160.08,3.85 -7.29,1.35"/>
        <lane id="-E1_2" index="2" speed="13.89" length="167.39" shape="160.13,0.65 -7.24,-1.85"/>
    </edge>
    <edge id="-E2" from="J1" to="J3" priority="-1">
        <lane id="-E2_0" index="0" speed="13.89" length="78.19" shape="-28.61,-17.39 -27.34,-95.57"/>
        <lane id="-E2_1" index="1" speed="13.89" length="78.19" shape="-25.41,-17.34 -24.14,-95.52"/>
        <lane id="-E2_2" index="2" speed="13.89" length="78.19" shape="-22.21,-17.29 -20.94,-95.47"/>
    </edge>
    <edge id="-E3" from="J4" to="J1" priority="-1">
        <lane id="-E3_0" index="0" speed="13.89" length="87.80" shape="-30.49,97.69 -29.05,9.90"/>
        <lane id="-E3_1" index="1" speed="13.89" length="87.80" shape="-27.29,97.74 -25.85,9.95"/>
        <lane id="-E3_2" index="2" speed="13.89" length="87.80" shape="-24.09,97.79 -22.65,10.00"/>
    </edge>
    <edge id="E0" from="J0" to="J1" priority="-1">
        <lane id="E0_0" index="0" speed="13.89" length="144.10" shape="-178.55,-12.82 -34.46,-11.76"/>
        <lane id="E0_1" index="1" speed="13.89" length="144.10" shape="-178.57,-9.62 -34.48,-8.56"/>
        <lane id="E0_2" index="2" speed="13.89" length="144.10" shape="-178.60,-6.42 -34.50,-5.36"/>
    </edge>
    <edge id="E1" from="J1" to="J2" priority="-1">
        <lane id="E1_0" index="0" speed="13.89" length="167.39" shape="-7.10,-11.45 160.27,-8.95"/>
        <lane id="E1_1" index="1" speed="13.89" length="167.39" shape="-7.15,-8.25 160.22,-5.75"/>
        <lane id="E1_2" index="2" speed="13.89" length="167.39" shape="-7.19,-5.05 160.17,-2.55"/>
    </edge>
    <edge id="E2" from="J3" to="J1" priority="-1">
        <lane id="E2_0" index="0" speed="13.89" length="78.19" shape="-11.34,-95.31 -12.61,-17.13"/>
        <lane id="E2_1" index="1" speed="13.89" length="78.19" shape="-14.54,-95.36 -15.81,-17.19"/>
        <lane id="E2_2" index="2" speed="13.89" length="78.19" shape="-17.74,-95.41 -19.01,-17.24"/>
    </edge>
    <edge id="E3" from="J1" to="J4" priority="-1">
        <lane id="E3_0" index="0" speed="13.89" length="87.80" shape="-13.05,10.16 -14.49,97.95"/>
        <lane id="E3_1" index="1" speed="13.89" length="87.80" shape="-16.25,10.11 -17.69,97.90"/>
        <lane id="E3_2" index="2" speed="13.89" length="87.80" shape="-19.45,10.06 -20.89,97.85"/>
    </edge>

    <tlLogic id="J1" type="static" programID="0" offset="0">
        <phase duration="42" state="rrrrrGGGGgrrrrrGGGGg"/>
        <phase duration="3"  state="rrrrryyyyyrrrrryyyyy"/>
        <phase duration="42" state="GGGGgrrrrrGGGGgrrrrr"/>
        <phase duration="3"  state="yyyyyrrrrryyyyyrrrrr"/>
    </tlLogic>

    <junction id="J0" type="dead_end" x="-178.61" y="-4.82" incLanes="-E0_0 -E0_1 -E0_2" intLanes="" shape="-178.61,-4.82 -178.68,4.78 -178.61,-4.82"/>
    <junction id="J1" type="traffic_light" x="-20.83" y="-3.65" incLanes="-E1_0 -E1_1 -E1_2 E2_0 E2_1 E2_2 E0_0 E0_1 E0_2 -E3_0 -E3_1 -E3_2" intLanes=":J1_0_0 :J1_1_0 :J1_1_1 :J1_1_2 :J1_20_0 :J1_5_0 :J1_6_0 :J1_6_1 :J1_6_2 :J1_21_0 :J1_10_0 :J1_11_0 :J1_11_1 :J1_11_2 :J1_22_0 :J1_15_0 :J1_16_0 :J1_16_1 :J1_16_2 :J1_23_0" shape="-7.36,6.15 -7.07,-13.05 -9.29,-13.53 -10.06,-14.09 -10.60,-14.88 -10.92,-15.89 -11.01,-17.11 -30.21,-17.42 -30.71,-15.15 -31.30,-14.36 -32.12,-13.79 -33.17,-13.46 -34.44,-13.36 -34.59,5.84 -32.37,6.31 -31.60,6.87 -31.06,7.65 -30.74,8.65 -30.65,9.87 -11.45,10.19 -10.97,7.92 -10.40,7.13 -9.61,6.57 -8.59,6.24">
        <request index="0"  response="00000000000111000000" foes="00000000000111000000" cont="0"/>
        <request index="1"  response="11111000001111000000" foes="11111100001111000000" cont="0"/>
        <request index="2"  response="11111000001111000000" foes="11111100001111000000" cont="0"/>
        <request index="3"  response="11111000001111000000" foes="11111100001111000000" cont="0"/>
        <request index="4"  response="11110011101111000000" foes="11110011101111000000" cont="1"/>
        <request index="5"  response="00000000000000000000" foes="00000011100000000000" cont="0"/>
        <request index="6"  response="00000100000000010000" foes="10000111100000011111" cont="0"/>
        <request index="7"  response="00000100000000010000" foes="10000111100000011111" cont="0"/>
        <request index="8"  response="00000100000000010000" foes="10000111100000011111" cont="0"/>
        <request index="9"  response="01110100000000010000" foes="01110111100000011110" cont="1"/>
        <request index="10" response="01110000000000000000" foes="01110000000000000000" cont="0"/>
        <request index="11" response="11110000001111100000" foes="11110000001111110000" cont="0"/>
        <request index="12" response="11110000001111100000" foes="11110000001111110000" cont="0"/>
        <request index="13" response="11110000001111100000" foes="11110000001111110000" cont="0"/>
        <request index="14" response="11110000001111001110" foes="11110000001111001110" cont="1"/>
        <request index="15" response="00000000000000000000" foes="00000000000000001110" cont="0"/>
        <request index="16" response="00000100000000010000" foes="00000111111000011110" cont="0"/>
        <request index="17" response="00000100000000010000" foes="00000111111000011110" cont="0"/>
        <request index="18" response="00000100000000010000" foes="00000111111000011110" cont="0"/>
        <request index="19" response="00000100000111010000" foes="00000111100111011110" cont="1"/>
    </junction>
    <junction id="J2" type="dead_end" x="160.15" y="-0.95" incLanes="E1_0 E1_1 E1_2" intLanes="" shape="160.15,-0.95 160.29,-10.55 160.15,-0.95"/>
    <junction id="J3" type="dead_end" x="-19.34" y="-95.44" incLanes="-E2_0 -E2_1 -E2_2" intLanes="" shape="-19.34,-95.44 -28.94,-95.60 -19.34,-95.44"/>
    <junction id="J4" type="dead_end" x="-22.49" y="97.82" incLanes="E3_0 E3_1 E3_2" intLanes="" shape="-22.49,97.82 -12.89,97.98 -22.49,97.82"/>

    <junction id=":J1_20_0" type="internal" x="-12.07" y="-2.61" incLanes=":J1_4_0 E0_0 E0_1 E0_2" intLanes=":J1_6_0 :J1_6_1 :J1_6_2 :J1_9_0 :J1_10_0 :J1_11_0 :J1_11_1 :J1_11_2 :J1_16_0 :J1_16_1 :J1_16_2 :J1_19_0"/>
    <junction id=":J1_21_0" type="internal" x="-19.80" y="-12.30" incLanes=":J1_9_0 -E3_0 -E3_1 -E3_2" intLanes=":J1_1_0 :J1_1_1 :J1_1_2 :J1_4_0 :J1_11_0 :J1_11_1 :J1_11_2 :J1_14_0 :J1_15_0 :J1_16_0 :J1_16_1 :J1_16_2"/>
    <junction id=":J1_22_0" type="internal" x="-29.42" y="-4.59" incLanes=":J1_14_0 -E1_0 -E1_1 -E1_2" intLanes=":J1_0_0 :J1_1_0 :J1_1_1 :J1_1_2 :J1_6_0 :J1_6_1 :J1_6_2 :J1_9_0 :J1_16_0 :J1_16_1 :J1_16_2 :J1_19_0"/>
    <junction id=":J1_23_0" type="internal" x="-21.86" y="5.03" incLanes=":J1_19_0 E2_0 E2_1 E2_2" intLanes=":J1_1_0 :J1_1_1 :J1_1_2 :J1_4_0 :J1_5_0 :J1_6_0 :J1_6_1 :J1_6_2 :J1_11_0 :J1_11_1 :J1_11_2 :J1_14_0"/>

    <connection from="-E1" to="E3" fromLane="0" toLane="0" via=":J1_0_0" tl="J1" linkIndex="0" dir="r" state="o"/>
    <connection from="-E1" to="-E0" fromLane="0" toLane="0" via=":J1_1_0" tl="J1" linkIndex="1" dir="s" state="o"/>
    <connection from="-E1" to="-E0" fromLane="1" toLane="1" via=":J1_1_1" tl="J1" linkIndex="2" dir="s" state="o"/>
    <connection from="-E1" to="-E0" fromLane="2" toLane="2" via=":J1_1_2" tl="J1" linkIndex="3" dir="s" state="o"/>
    <connection from="-E1" to="-E2" fromLane="2" toLane="2" via=":J1_4_0" tl="J1" linkIndex="4" dir="l" state="o"/>
    <connection from="-E3" to="-E0" fromLane="0" toLane="0" via=":J1_15_0" tl="J1" linkIndex="15" dir="r" state="O"/>
    <connection from="-E3" to="-E2" fromLane="0" toLane="0" via=":J1_16_0" tl="J1" linkIndex="16" dir="s" state="O"/>
    <connection from="-E3" to="-E2" fromLane="1" toLane="1" via=":J1_16_1" tl="J1" linkIndex="17" dir="s" state="O"/>
    <connection from="-E3" to="-E2" fromLane="2" toLane="2" via=":J1_16_2" tl="J1" linkIndex="18" dir="s" state="O"/>
    <connection from="-E3" to="E1" fromLane="2" toLane="2" via=":J1_19_0" tl="J1" linkIndex="19" dir="l" state="o"/>
    <connection from="E0" to="-E2" fromLane="0" toLane="0" via=":J1_10_0" tl="J1" linkIndex="10" dir="r" state="o"/>
    <connection from="E0" to="E1" fromLane="0" toLane="0" via=":J1_11_0" tl="J1" linkIndex="11" dir="s" state="o"/>
    <connection from="E0" to="E1" fromLane="1" toLane="1" via=":J1_11_1" tl="J1" linkIndex="12" dir="s" state="o"/>
    <connection from="E0" to="E1" fromLane="2" toLane="2" via=":J1_11_2" tl="J1" linkIndex="13" dir="s" state="o"/>
    <connection from="E0" to="E3" fromLane="2" toLane="2" via=":J1_14_0" tl="J1" linkIndex="14" dir="l" state="o"/>
    <connection from="E2" to="E1" fromLane="0" toLane="0" via=":J1_5_0" tl="J1" linkIndex="5" dir="r" state="O"/>
    <connection from="E2" to="E3" fromLane="0" toLane="0" via=":J1_6_0" tl="J1" linkIndex="6" dir="s" state="O"/>
    <connection from="E2" to="E3" fromLane="1" toLane="1" via=":J1_6_1" tl="J1" linkIndex="7" dir="s" state="O"/>
    <connection from="E2" to="E3" fromLane="2" toLane="2" via=":J1_6_2" tl="J1" linkIndex="8" dir="s" state="O"/>
    <connection from="E2" to="-E0" fromLane="2" toLane="2" via=":J1_9_0" tl="J1" linkIndex="9" dir="l" state="o"/>

    <connection from=":J1_0" to="E3" fromLane="0" toLane="0" dir="r" state="M"/>
    <connection from=":J1_1" to="-E0" fromLane="0" toLane="0" dir="s" state="M"/>
    <connection from=":J1_1" to="-E0" fromLane="1" toLane="1" dir="s" state="M"/>
    <connection from=":J1_1" to="-E0" fromLane="2" toLane="2" dir="s" state="M"/>
    <connection from=":J1_4" to="-E2" fromLane="0" toLane="2" via=":J1_20_0" dir="l" state="m"/>
    <connection from=":J1_20" to="-E2" fromLane="0" toLane="2" dir="l" state="M"/>
    <connection from=":J1_5" to="E1" fromLane="0" toLane="0" dir="r" state="M"/>
    <connection from=":J1_6" to="E3" fromLane="0" toLane="0" dir="s" state="M"/>
    <connection from=":J1_6" to="E3" fromLane="1" toLane="1" dir="s" state="M"/>
    <connection from=":J1_6" to="E3" fromLane="2" toLane="2" dir="s" state="M"/>
    <connection from=":J1_9" to="-E0" fromLane="0" toLane="2" via=":J1_21_0" dir="l" state="m"/>
    <connection from=":J1_21" to="-E0" fromLane="0" toLane="2" dir="l" state="M"/>
    <connection from=":J1_10" to="-E2" fromLane="0" toLane="0" dir="r" state="M"/>
    <connection from=":J1_11" to="E1" fromLane="0" toLane="0" dir="s" state="M"/>
    <connection from=":J1_11" to="E1" fromLane="1" toLane="1" dir="s" state="M"/>
    <connection from=":J1_11" to="E1" fromLane="2" toLane="2" dir="s" state="M"/>
    <connection from=":J1_14" to="E3" fromLane="0" toLane="2" via=":J1_22_0" dir="l" state="m"/>
    <connection from=":J1_22" to="E3" fromLane="0" toLane="2" dir="l" state="M"/>
    <connection from=":J1_15" to="-E0" fromLane="0" toLane="0" dir="r" state="M"/>
    <connection from=":J1_16" to="-E2" fromLane="0" toLane="0" dir="s" state="M"/>
    <connection from=":J1_16" to="-E2" fromLane="1" toLane="1" dir="s" state="M"/>
    <connection from=":J1_16" to="-E2" fromLane="2" toLane="2" dir="s" state="M"/>
    <connection from=":J1_19" to="E1" fromLane="0" toLane="2" via=":J1_23_0" dir="l" state="m"/>
    <connection from=":J1_23" to="E1" fromLane="0" toLane="2" dir="l" state="M"/>

</net>
