<?xml version="1.0" encoding="UTF-8"?>

<!-- generated on 2024-01-29 13:07:30 by Eclipse SUMO netedit Version 1.19.0
-->

<routes xmlns:xsi="http://www.w3.org/2001/XMLSchema-instance" xsi:noNamespaceSchemaLocation="http://sumo.dlr.de/xsd/routes_file.xsd">
    <!-- Vehicles, persons and containers (sorted by depart) -->
    <trip id="0" depart="0.00" color="grey" from="-49#0" to="5"/>
    <flow id="EloraWhite_0" begin="0.00" color="white" from="40#8" to="-39#0" via="-31 -4" end="3600.00" vehsPerHour="300"/>
    <flow id="ElkaRed_0" begin="1.00" color="red" from="-75" to="49#0" via="-40#8" end="3600.00" vehsPerHour="300"/>
</routes>
