<?xml version="1.0" encoding="UTF-8"?>

<!-- generated on 2024-01-29 13:07:30 by Eclipse SUMO netedit Version 1.19.0
<configuration xmlns:xsi="http://www.w3.org/2001/XMLSchema-instance" xsi:noNamespaceSchemaLocation="http://sumo.dlr.de/xsd/neteditConfiguration.xsd">

    <input>
        <sumocfg-file value="C:\Users\ahmad\Documents\SUMO2Unity\Assets\_Project\Sumo_Data\SUMO2Unity.sumocfg"/>
        <route-files value="C:\Users\ahmad\Documents\SUMO2Unity\Assets\_Project\Sumo_Data\SUMO2Unity.rou.xml"/>
        <sumo-net-file value="C:\Users\ahmad\Documents\SUMO2Unity\Assets\_Project\Sumo_Data\SUMO2Unity.net.xml"/>
    </input>

    <output>
        <output-file value="C:\Users\ahmad\Documents\SUMO2Unity\Assets\_Project\Sumo_Data\SUMO2Unity.net.xml"/>
    </output>

    <processing>
        <geometry.min-radius.fix.railways value="false"/>
        <geometry.max-grade.fix value="false"/>
        <offset.disable-normalization value="true"/>
        <lefthand value="0"/>
    </processing>

    <junctions>
        <no-turnarounds value="true"/>
        <junctions.corner-detail value="5"/>
        <junctions.limit-turn-speed value="5.50"/>
        <rectangular-lane-cut value="1"/>
    </junctions>

    <pedestrian>
        <walkingareas value="0"/>
    </pedestrian>

</configuration>
-->

<net version="1.16" junctionCornerDetail="5" rectangularLaneCut="true" limitTurnSpeed="5.50" xmlns:xsi="http://www.w3.org/2001/XMLSchema-instance" xsi:noNamespaceSchemaLocation="http://sumo.dlr.de/xsd/net_file.xsd">

    <location netOffset="574.72,549.30" convBoundary="0.00,0.00,1209.06,1146.59" origBoundary="0.000000,0.000000,0.000000,0.000000" projParameter="+proj=tmerc +lat_0=43.80694330845631 +lon_0=-79.13284912703405 +k=1 +x_0=0 +y_0=0 +datum=WGS84 +units=m  +vunits=m +no_defs "/>

    <type id="driving" priority="1" speed="13.89" disallow="pedestrian tram rail_urban rail rail_electric rail_fast ship" width="3.65"/>

    <edge id=":11#1_0" function="internal">
        <lane id=":11#1_0_0" index="0" disallow="pedestrian tram rail_urban rail rail_electric rail_fast ship" speed="17.88" length="3.00" width="3.50" shape="801.13,802.00 798.65,800.31"/>
        <lane id=":11#1_0_1" index="1" disallow="pedestrian tram rail_urban rail rail_electric rail_fast ship" speed="17.88" length="3.00" width="3.50" shape="803.10,799.10 800.62,797.41"/>
    </edge>
    <edge id=":11#1_2" function="internal">
        <lane id=":11#1_2_0" index="0" disallow="pedestrian tram rail_urban rail rail_electric rail_fast ship" speed="17.88" length="3.02" width="3.50" shape="806.05,789.42 806.82,789.88 807.39,790.13 807.95,790.37 808.72,790.83"/>
        <lane id=":11#1_2_1" index="1" disallow="pedestrian tram rail_urban rail rail_electric rail_fast ship" speed="17.88" length="3.02" width="3.50" shape="804.08,792.32 804.85,792.77 805.42,793.02 805.98,793.27 806.75,793.73"/>
        <lane id=":11#1_2_2" index="2" disallow="pedestrian tram rail_urban rail rail_electric rail_fast ship" speed="17.88" length="3.02" width="3.00" shape="802.36,794.85 804.92,796.41"/>
    </edge>
    <edge id=":11#10_0" function="internal">
        <lane id=":11#10_0_0" index="0" disallow="pedestrian tram rail_urban rail rail_electric rail_fast ship" speed="17.88" length="0.33" width="3.50" shape="701.49,733.88 701.26,733.69"/>
        <lane id=":11#10_0_1" index="1" disallow="pedestrian tram rail_urban rail rail_electric rail_fast ship" speed="17.88" length="0.33" width="3.50" shape="703.76,731.22 703.50,731.00"/>
        <lane id=":11#10_0_2" index="2" disallow="pedestrian tram rail_urban rail rail_electric rail_fast ship" speed="17.88" length="0.33" width="3.12" shape="705.90,728.70 705.63,728.46"/>
    </edge>
    <edge id=":11#10_3" function="internal">
        <lane id=":11#10_3_0" index="0" disallow="pedestrian tram rail_urban rail rail_electric rail_fast ship" speed="17.88" length="0.31" width="3.50" shape="711.33,721.64 711.40,721.69 711.46,721.72 711.52,721.75 711.60,721.80"/>
        <lane id=":11#10_3_1" index="1" disallow="pedestrian tram rail_urban rail rail_electric rail_fast ship" speed="17.88" length="0.31" width="3.50" shape="709.08,724.33 709.16,724.38 709.21,724.41 709.27,724.43 709.35,724.48"/>
    </edge>
    <edge id=":11#11_0" function="internal">
        <lane id=":11#11_0_0" index="0" disallow="pedestrian tram rail_urban rail rail_electric rail_fast ship" speed="17.88" length="3.12" width="3.50" shape="695.09,728.42 694.35,727.85 693.79,727.53 693.23,727.21 692.49,726.64"/>
        <lane id=":11#11_0_1" index="1" disallow="pedestrian tram rail_urban rail rail_electric rail_fast ship" speed="17.88" length="3.12" width="3.50" shape="697.39,725.77 696.65,725.21 696.10,724.90 695.54,724.59 694.81,724.02"/>
        <lane id=":11#11_0_2" index="2" disallow="pedestrian tram rail_urban rail rail_electric rail_fast ship" speed="17.88" length="3.12" width="3.50" shape="699.56,723.27 697.13,721.40"/>
    </edge>
    <edge id=":11#11_3" function="internal">
        <lane id=":11#11_3_0" index="0" disallow="pedestrian tram rail_urban rail rail_electric rail_fast ship" speed="17.88" length="3.03" width="3.50" shape="703.16,714.61 705.43,716.60"/>
        <lane id=":11#11_3_1" index="1" disallow="pedestrian tram rail_urban rail rail_electric rail_fast ship" speed="17.88" length="3.03" width="3.50" shape="700.84,717.23 703.12,719.23"/>
    </edge>
    <edge id=":11#2_0" function="internal">
        <lane id=":11#2_0_0" index="0" disallow="pedestrian tram rail_urban rail rail_electric rail_fast ship" speed="17.88" length="3.00" width="3.50" shape="785.10,791.08 782.62,789.40"/>
        <lane id=":11#2_0_1" index="1" disallow="pedestrian tram rail_urban rail rail_electric rail_fast ship" speed="17.88" length="3.00" width="3.50" shape="787.07,788.19 784.59,786.50"/>
    </edge>
    <edge id=":11#2_2" function="internal">
        <lane id=":11#2_2_0" index="0" disallow="pedestrian tram rail_urban rail rail_electric rail_fast ship" speed="17.88" length="3.11" width="3.50" shape="789.56,779.20 790.38,779.60 791.03,779.70 791.68,779.80 792.50,780.20"/>
        <lane id=":11#2_2_1" index="1" disallow="pedestrian tram rail_urban rail rail_electric rail_fast ship" speed="17.88" length="3.11" width="3.50" shape="787.59,782.09 788.41,782.49 789.06,782.59 789.71,782.69 790.53,783.09"/>
        <lane id=":11#2_2_2" index="2" allow="emergency authority" speed="17.88" length="3.11" width="2.63" shape="786.10,784.28 786.87,784.73 787.45,784.95 788.03,785.18 788.81,785.63"/>
    </edge>
    <edge id=":11#3_0" function="internal">
        <lane id=":11#3_0_0" index="0" disallow="pedestrian tram rail_urban rail rail_electric rail_fast ship" speed="17.88" length="4.60" width="3.50" shape="757.96,772.58 754.18,769.96"/>
        <lane id=":11#3_0_1" index="1" disallow="pedestrian tram rail_urban rail rail_electric rail_fast ship" speed="17.88" length="4.60" width="3.50" shape="759.95,769.71 756.18,767.09"/>
    </edge>
    <edge id=":11#3_2" function="internal">
        <lane id=":11#3_2_0" index="0" disallow="pedestrian tram rail_urban rail rail_electric rail_fast ship" speed="17.88" length="4.62" width="3.50" shape="761.47,759.44 762.56,760.28 763.23,760.94 763.90,761.60 764.98,762.44"/>
        <lane id=":11#3_2_1" index="1" disallow="pedestrian tram rail_urban rail rail_electric rail_fast ship" speed="17.88" length="4.62" width="3.50" shape="759.48,762.32 760.57,763.16 761.24,763.82 761.91,764.48 762.99,765.32"/>
    </edge>
    <edge id=":11#4_0" function="internal">
        <lane id=":11#4_0_0" index="0" disallow="pedestrian tram rail_urban rail rail_electric rail_fast ship" speed="17.88" length="2.86" width="3.50" shape="754.01,769.85 751.67,768.24"/>
        <lane id=":11#4_0_1" index="1" disallow="pedestrian tram rail_urban rail rail_electric rail_fast ship" speed="17.88" length="2.86" width="3.50" shape="756.01,766.98 753.64,765.35"/>
    </edge>
    <edge id=":11#4_2" function="internal">
        <lane id=":11#4_2_0" index="0" disallow="pedestrian tram rail_urban rail rail_electric rail_fast ship" speed="17.88" length="2.86" width="3.50" shape="758.98,757.69 761.31,759.33"/>
        <lane id=":11#4_2_1" index="1" disallow="pedestrian tram rail_urban rail rail_electric rail_fast ship" speed="17.88" length="2.86" width="3.50" shape="756.96,760.56 759.32,762.21"/>
    </edge>
    <edge id=":11#5_0" function="internal">
        <lane id=":11#5_0_0" index="0" disallow="pedestrian tram rail_urban rail rail_electric rail_fast ship" speed="17.88" length="1.26" width="3.50" shape="751.50,768.13 752.53,768.83"/>
        <lane id=":11#5_0_1" index="1" disallow="pedestrian tram rail_urban rail rail_electric rail_fast ship" speed="17.88" length="1.26" width="3.50" shape="753.48,765.24 754.54,765.96"/>
    </edge>
    <edge id=":11#5_2" function="internal">
        <lane id=":11#5_2_0" index="0" disallow="pedestrian tram rail_urban rail rail_electric rail_fast ship" speed="17.88" length="1.33" width="3.50" shape="759.89,758.34 758.81,757.58"/>
        <lane id=":11#5_2_1" index="1" disallow="pedestrian tram rail_urban rail rail_electric rail_fast ship" speed="17.88" length="1.33" width="3.50" shape="757.90,761.22 756.80,760.44"/>
    </edge>
    <edge id=":11#6_0" function="internal">
        <lane id=":11#6_0_0" index="0" disallow="pedestrian tram rail_urban rail rail_electric rail_fast ship" speed="17.88" length="2.99" width="3.50" shape="752.45,768.77 749.99,767.07"/>
        <lane id=":11#6_0_1" index="1" disallow="pedestrian tram rail_urban rail rail_electric rail_fast ship" speed="17.88" length="2.99" width="3.50" shape="754.46,765.90 751.99,764.19"/>
    </edge>
    <edge id=":11#6_2" function="internal">
        <lane id=":11#6_2_0" index="0" disallow="pedestrian tram rail_urban rail rail_electric rail_fast ship" speed="17.88" length="2.99" width="3.50" shape="757.29,756.54 759.74,758.24"/>
        <lane id=":11#6_2_1" index="1" disallow="pedestrian tram rail_urban rail rail_electric rail_fast ship" speed="17.88" length="2.99" width="3.50" shape="755.29,759.42 757.76,761.12"/>
    </edge>
    <edge id=":11#7_0" function="internal">
        <lane id=":11#7_0_0" index="0" disallow="pedestrian tram rail_urban rail rail_electric rail_fast ship" speed="17.88" length="3.24" width="3.50" shape="745.35,763.85 744.49,763.42 743.81,763.29 743.14,763.17 742.29,762.73"/>
        <lane id=":11#7_0_1" index="1" disallow="pedestrian tram rail_urban rail rail_electric rail_fast ship" speed="17.88" length="3.24" width="3.50" shape="747.34,760.98 746.49,760.55 745.82,760.43 745.15,760.30 744.30,759.87"/>
        <lane id=":11#7_0_2" index="2" allow="emergency authority" speed="17.88" length="3.24" width="0.84" shape="748.35,759.54 747.54,759.06 746.95,758.82 746.35,758.57 745.55,758.09"/>
    </edge>
    <edge id=":11#7_3" function="internal">
        <lane id=":11#7_3_0" index="0" disallow="pedestrian tram rail_urban rail rail_electric rail_fast ship" speed="17.88" length="3.12" width="3.50" shape="750.12,751.60 752.69,753.36"/>
        <lane id=":11#7_3_1" index="1" disallow="pedestrian tram rail_urban rail rail_electric rail_fast ship" speed="17.88" length="3.12" width="3.50" shape="748.11,754.47 750.69,756.22"/>
    </edge>
    <edge id=":11#8_0" function="internal">
        <lane id=":11#8_0_0" index="0" disallow="pedestrian tram rail_urban rail rail_electric rail_fast ship" speed="17.88" length="3.29" width="3.50" shape="728.76,752.84 727.90,752.38 727.20,752.26 726.51,752.15 725.65,751.68"/>
        <lane id=":11#8_0_1" index="1" disallow="pedestrian tram rail_urban rail rail_electric rail_fast ship" speed="17.88" length="3.29" width="3.50" shape="730.87,750.05 730.02,749.60 729.33,749.48 728.64,749.37 727.79,748.91"/>
        <lane id=":11#8_0_2" index="2" allow="emergency authority" speed="17.88" length="3.29" width="1.80" shape="732.18,748.32 731.40,747.82 730.79,747.57 730.20,747.32 729.41,746.81"/>
    </edge>
    <edge id=":11#8_3" function="internal">
        <lane id=":11#8_3_0" index="0" disallow="pedestrian tram rail_urban rail rail_electric rail_fast ship" speed="17.88" length="3.09" width="3.50" shape="734.49,740.26 737.02,742.03"/>
        <lane id=":11#8_3_1" index="1" disallow="pedestrian tram rail_urban rail rail_electric rail_fast ship" speed="17.88" length="3.09" width="3.50" shape="732.37,743.04 734.89,744.81"/>
    </edge>
    <edge id=":11#9_0" function="internal">
        <lane id=":11#9_0_0" index="0" disallow="pedestrian tram rail_urban rail rail_electric rail_fast ship" speed="17.88" length="3.45" width="3.50" shape="721.10,748.14 720.19,747.69 719.43,747.66 718.66,747.64 717.76,747.18"/>
        <lane id=":11#9_0_1" index="1" disallow="pedestrian tram rail_urban rail rail_electric rail_fast ship" speed="17.88" length="3.45" width="3.50" shape="723.27,745.39 722.37,744.94 721.61,744.92 720.85,744.90 719.95,744.45"/>
        <lane id=":11#9_0_2" index="2" allow="emergency authority" speed="17.88" length="3.45" width="3.12" shape="724.91,743.31 724.10,742.81 723.46,742.59 722.82,742.38 722.02,741.87"/>
    </edge>
    <edge id=":11#9_3" function="internal">
        <lane id=":11#9_3_0" index="0" disallow="pedestrian tram rail_urban rail rail_electric rail_fast ship" speed="17.88" length="3.07" width="3.50" shape="727.61,734.88 730.00,736.77"/>
        <lane id=":11#9_3_1" index="1" disallow="pedestrian tram rail_urban rail rail_electric rail_fast ship" speed="17.88" length="3.07" width="3.50" shape="725.41,737.61 727.84,739.52"/>
    </edge>
    <edge id=":156_0" function="internal">
        <lane id=":156_0_0" index="0" disallow="pedestrian tram rail_urban rail rail_electric rail_fast ship" speed="17.88" length="13.00" width="3.50" shape="941.05,261.53 938.50,264.70 936.57,267.04 935.13,269.32 934.02,272.32"/>
    </edge>
    <edge id=":156_1" function="internal">
        <lane id=":156_1_0" index="0" disallow="pedestrian tram rail_urban rail rail_electric rail_fast ship" speed="7.82" length="10.80" width="3.50" shape="941.05,261.53 937.82,264.78 934.60,266.02 931.91,265.37"/>
        <lane id=":156_1_1" index="1" disallow="pedestrian tram rail_urban rail rail_electric rail_fast ship" speed="6.11" length="9.04" width="3.50" shape="938.26,259.42 936.36,261.35 934.48,262.13 932.63,261.74 930.80,260.19"/>
    </edge>
    <edge id=":156_4" function="internal">
        <lane id=":156_4_0" index="0" disallow="pedestrian tram rail_urban rail rail_electric rail_fast ship" speed="7.82" length="4.82" width="3.50" shape="931.91,265.37 931.37,265.24 928.13,262.46"/>
    </edge>
    <edge id=":156_3" function="internal">
        <lane id=":156_3_0" index="0" disallow="pedestrian tram rail_urban rail rail_electric rail_fast ship" speed="8.90" length="9.66" width="3.50" shape="930.64,271.38 930.96,269.13 930.64,266.89 929.70,264.67 928.13,262.46"/>
    </edge>
    <edge id=":174_0" function="internal">
        <lane id=":174_0_0" index="0" disallow="pedestrian tram rail_urban rail rail_electric rail_fast ship" speed="17.88" length="49.80" width="4.41" shape="685.71,720.55 675.50,711.88 663.53,702.45 652.86,694.38 646.59,689.77"/>
    </edge>
    <edge id=":174_1" function="internal">
        <lane id=":174_1_0" index="0" disallow="pedestrian tram rail_urban rail rail_electric rail_fast ship" speed="17.88" length="49.70" width="3.50" shape="685.71,720.55 649.55,686.22"/>
        <lane id=":174_1_1" index="1" disallow="pedestrian tram rail_urban rail rail_electric rail_fast ship" speed="17.88" length="49.70" width="3.50" shape="688.08,717.97 652.03,683.76"/>
        <lane id=":174_1_2" index="2" disallow="pedestrian tram rail_urban rail rail_electric rail_fast ship" speed="17.88" length="49.70" width="3.50" shape="690.44,715.39 654.52,681.29"/>
    </edge>
    <edge id=":174_4" function="internal">
        <lane id=":174_4_0" index="0" disallow="pedestrian tram rail_urban rail rail_electric rail_fast ship" speed="17.88" length="49.19" width="3.50" shape="660.96,674.90 696.58,708.70"/>
        <lane id=":174_4_1" index="1" disallow="pedestrian tram rail_urban rail rail_electric rail_fast ship" speed="17.88" length="49.19" width="3.50" shape="658.48,677.36 694.21,711.28"/>
    </edge>
    <edge id=":184_0" function="internal">
        <lane id=":184_0_0" index="0" disallow="pedestrian tram rail_urban rail rail_electric rail_fast ship" speed="9.69" length="21.40" width="3.50" shape="491.67,925.50 485.77,924.36 480.98,925.30 477.30,928.34 474.73,933.47"/>
    </edge>
    <edge id=":184_1" function="internal">
        <lane id=":184_1_0" index="0" disallow="pedestrian tram rail_urban rail rail_electric rail_fast ship" speed="17.88" length="26.05" width="3.50" shape="491.67,925.50 467.06,916.95"/>
    </edge>
    <edge id=":184_2" function="internal">
        <lane id=":184_2_0" index="0" disallow="pedestrian tram rail_urban rail rail_electric rail_fast ship" speed="10.93" length="6.26" width="3.50" shape="491.67,925.50 486.10,922.65"/>
    </edge>
    <edge id=":184_12" function="internal">
        <lane id=":184_12_0" index="0" disallow="pedestrian tram rail_urban rail rail_electric rail_fast ship" speed="10.93" length="20.37" width="3.50" shape="486.10,922.65 485.28,922.24 481.42,917.64 480.06,911.71 481.23,904.44"/>
    </edge>
    <edge id=":184_3" function="internal">
        <lane id=":184_3_0" index="0" disallow="pedestrian tram rail_urban rail rail_electric rail_fast ship" speed="9.78" length="21.10" width="3.50" shape="484.57,905.46 483.64,911.24 484.70,915.96 487.75,919.60 492.79,922.18"/>
    </edge>
    <edge id=":184_4" function="internal">
        <lane id=":184_4_0" index="0" disallow="pedestrian tram rail_urban rail rail_electric rail_fast ship" speed="17.88" length="29.69" width="3.50" shape="484.57,905.46 474.73,933.47"/>
    </edge>
    <edge id=":184_5" function="internal">
        <lane id=":184_5_0" index="0" disallow="pedestrian tram rail_urban rail rail_electric rail_fast ship" speed="10.16" length="23.96" width="3.50" shape="484.57,905.46 481.68,912.09 477.79,916.22 472.92,917.84 467.06,916.95"/>
    </edge>
    <edge id=":184_6" function="internal">
        <lane id=":184_6_0" index="0" disallow="pedestrian tram rail_urban rail rail_electric rail_fast ship" speed="8.93" length="18.21" width="3.50" shape="468.18,913.63 472.48,914.23 476.09,912.90 479.00,909.64 481.23,904.44"/>
    </edge>
    <edge id=":184_7" function="internal">
        <lane id=":184_7_0" index="0" disallow="pedestrian tram rail_urban rail rail_electric rail_fast ship" speed="17.88" length="26.06" width="3.50" shape="468.18,913.63 492.79,922.18"/>
    </edge>
    <edge id=":184_8" function="internal">
        <lane id=":184_8_0" index="0" disallow="pedestrian tram rail_urban rail rail_electric rail_fast ship" speed="10.24" length="4.81" width="3.50" shape="468.18,913.63 472.37,916.00"/>
    </edge>
    <edge id=":184_13" function="internal">
        <lane id=":184_13_0" index="0" disallow="pedestrian tram rail_urban rail rail_electric rail_fast ship" speed="10.24" length="18.82" width="3.50" shape="472.37,916.00 472.99,916.35 475.69,920.57 476.27,926.28 474.73,933.47"/>
    </edge>
    <edge id=":184_9" function="internal">
        <lane id=":184_9_0" index="0" disallow="pedestrian tram rail_urban rail rail_electric rail_fast ship" speed="9.01" length="18.05" width="3.50" shape="471.41,932.39 472.67,926.70 472.37,922.23 470.50,918.98 467.06,916.95"/>
    </edge>
    <edge id=":184_10" function="internal">
        <lane id=":184_10_0" index="0" disallow="pedestrian tram rail_urban rail rail_electric rail_fast ship" speed="17.88" length="29.62" width="3.50" shape="471.41,932.39 481.23,904.44"/>
    </edge>
    <edge id=":184_11" function="internal">
        <lane id=":184_11_0" index="0" disallow="pedestrian tram rail_urban rail rail_electric rail_fast ship" speed="10.85" length="27.09" width="3.50" shape="471.41,932.39 474.67,925.86 479.32,921.98 485.36,920.75 492.79,922.18"/>
    </edge>
    <edge id=":215_0" function="internal">
        <lane id=":215_0_0" index="0" disallow="pedestrian tram rail_urban rail rail_electric rail_fast ship" speed="9.81" length="9.07" width="3.50" shape="488.85,1117.47 488.59,1119.27 488.83,1121.31 489.57,1123.59 490.80,1126.10"/>
        <lane id=":215_0_1" index="1" disallow="pedestrian tram rail_urban rail rail_electric rail_fast ship" speed="11.17" length="11.89" width="3.50" shape="485.50,1116.46 485.10,1118.96 485.34,1121.69 486.23,1124.65 487.75,1127.82"/>
    </edge>
    <edge id=":215_2" function="internal">
        <lane id=":215_2_0" index="0" disallow="pedestrian tram rail_urban rail rail_electric rail_fast ship" speed="9.91" length="9.21" width="3.50" shape="472.42,1120.74 474.80,1119.34 476.66,1117.82 478.00,1116.18 478.81,1114.43"/>
    </edge>
    <edge id=":215_3" function="internal">
        <lane id=":215_3_0" index="0" disallow="pedestrian tram rail_urban rail rail_electric rail_fast ship" speed="9.93" length="11.19" width="3.50" shape="472.42,1120.74 478.05,1118.79 482.99,1119.04 483.24,1119.18"/>
    </edge>
    <edge id=":215_4" function="internal">
        <lane id=":215_4_0" index="0" disallow="pedestrian tram rail_urban rail rail_electric rail_fast ship" speed="11.25" length="12.02" width="3.50" shape="474.01,1123.86 477.00,1122.07 479.36,1120.07 481.07,1117.86 482.16,1115.44"/>
    </edge>
    <edge id=":215_5" function="internal">
        <lane id=":215_5_0" index="0" disallow="pedestrian tram rail_urban rail rail_electric rail_fast ship" speed="8.65" length="10.57" width="3.50" shape="474.01,1123.86 478.23,1122.40 481.92,1122.57 484.02,1123.76"/>
    </edge>
    <edge id=":215_6" function="internal">
        <lane id=":215_6_0" index="0" disallow="pedestrian tram rail_urban rail rail_electric rail_fast ship" speed="9.93" length="10.46" width="3.50" shape="483.24,1119.18 487.24,1121.47 490.80,1126.10"/>
    </edge>
    <edge id=":215_7" function="internal">
        <lane id=":215_7_0" index="0" disallow="pedestrian tram rail_urban rail rail_electric rail_fast ship" speed="8.65" length="5.59" width="3.50" shape="484.02,1123.76 485.10,1124.38 487.75,1127.82"/>
    </edge>
    <edge id=":241_0" function="internal">
        <lane id=":241_0_0" index="0" disallow="pedestrian tram rail_urban rail rail_electric rail_fast ship" speed="17.88" length="29.10" width="3.70" shape="835.23,936.05 826.57,963.83"/>
    </edge>
    <edge id=":241_1" function="internal">
        <lane id=":241_1_0" index="0" disallow="pedestrian tram rail_urban rail rail_electric rail_fast ship" speed="10.65" length="6.61" width="3.50" shape="835.23,936.05 832.42,942.02"/>
    </edge>
    <edge id=":241_6" function="internal">
        <lane id=":241_6_0" index="0" disallow="pedestrian tram rail_urban rail rail_electric rail_fast ship" speed="10.65" length="18.39" width="3.50" shape="832.42,942.02 832.04,942.84 827.88,947.14 822.78,948.95 816.72,948.28"/>
    </edge>
    <edge id=":241_2" function="internal">
        <lane id=":241_2_0" index="0" disallow="pedestrian tram rail_urban rail rail_electric rail_fast ship" speed="9.46" length="19.51" width="3.50" shape="817.70,944.92 822.27,945.37 826.16,943.86 829.36,940.37 831.88,934.91"/>
    </edge>
    <edge id=":241_3" function="internal">
        <lane id=":241_3_0" index="0" disallow="pedestrian tram rail_urban rail rail_electric rail_fast ship" speed="10.21" length="23.85" width="3.70" shape="817.70,944.92 823.29,947.58 826.63,951.62 827.73,957.03 826.57,963.83"/>
    </edge>
    <edge id=":241_4" function="internal">
        <lane id=":241_4_0" index="0" disallow="pedestrian tram rail_urban rail rail_electric rail_fast ship" speed="8.96" length="18.09" width="3.50" shape="823.13,962.78 824.05,957.53 823.29,953.36 820.85,950.28 816.72,948.28"/>
    </edge>
    <edge id=":241_5" function="internal">
        <lane id=":241_5_0" index="0" disallow="pedestrian tram rail_urban rail rail_electric rail_fast ship" speed="17.88" length="29.21" width="3.50" shape="823.13,962.78 831.88,934.91"/>
    </edge>
    <edge id=":254_0" function="internal">
        <lane id=":254_0_0" index="0" disallow="pedestrian tram rail_urban rail rail_electric rail_fast ship" speed="11.44" length="30.16" width="3.50" shape="558.31,947.28 550.97,946.31 544.85,948.44 539.95,953.68 536.29,962.01"/>
    </edge>
    <edge id=":254_1" function="internal">
        <lane id=":254_1_0" index="0" disallow="pedestrian tram rail_urban rail rail_electric rail_fast ship" speed="17.88" length="41.09" width="3.50" shape="558.31,947.28 519.16,934.82"/>
    </edge>
    <edge id=":254_2" function="internal">
        <lane id=":254_2_0" index="0" disallow="pedestrian tram rail_urban rail rail_electric rail_fast ship" speed="12.80" length="6.55" width="2.50" shape="558.31,947.28 552.38,944.49"/>
    </edge>
    <edge id=":254_14" function="internal">
        <lane id=":254_14_0" index="0" disallow="pedestrian tram rail_urban rail rail_electric rail_fast ship" speed="12.80" length="31.05" width="2.50" shape="552.38,944.49 548.71,942.77 542.80,936.47 540.57,928.39 542.02,918.52"/>
    </edge>
    <edge id=":254_3" function="internal">
        <lane id=":254_3_0" index="0" disallow="pedestrian tram rail_urban rail rail_electric rail_fast ship" speed="11.40" length="29.59" width="3.50" shape="548.24,920.43 546.84,928.73 548.23,935.42 552.40,940.49 559.37,943.94"/>
    </edge>
    <edge id=":254_4" function="internal">
        <lane id=":254_4_0" index="0" disallow="pedestrian tram rail_urban rail rail_electric rail_fast ship" speed="17.88" length="43.26" width="3.50" shape="548.24,920.43 536.29,962.01"/>
        <lane id=":254_4_1" index="1" disallow="pedestrian tram rail_urban rail rail_electric rail_fast ship" speed="17.88" length="43.26" width="3.50" shape="544.89,919.40 532.94,960.98"/>
    </edge>
    <edge id=":254_6" function="internal">
        <lane id=":254_6_0" index="0" disallow="pedestrian tram rail_urban rail rail_electric rail_fast ship" speed="12.09" length="6.54" width="3.50" shape="544.89,919.40 542.21,925.37"/>
    </edge>
    <edge id=":254_15" function="internal">
        <lane id=":254_15_0" index="0" disallow="pedestrian tram rail_urban rail rail_electric rail_fast ship" speed="12.09" length="27.85" width="3.50" shape="542.21,925.37 540.77,928.57 535.11,934.19 527.90,936.27 519.16,934.82"/>
    </edge>
    <edge id=":254_7" function="internal">
        <lane id=":254_7_0" index="0" disallow="pedestrian tram rail_urban rail rail_electric rail_fast ship" speed="10.19" length="24.07" width="3.50" shape="520.28,931.50 524.98,931.83 529.13,929.46 532.74,924.39 535.81,916.62"/>
    </edge>
    <edge id=":254_8" function="internal">
        <lane id=":254_8_0" index="0" disallow="pedestrian tram rail_urban rail rail_electric rail_fast ship" speed="17.88" length="41.02" width="3.50" shape="520.28,931.50 559.37,943.94"/>
    </edge>
    <edge id=":254_9" function="internal">
        <lane id=":254_9_0" index="0" disallow="pedestrian tram rail_urban rail rail_electric rail_fast ship" speed="12.67" length="4.82" width="3.50" shape="520.28,931.50 524.54,933.76"/>
    </edge>
    <edge id=":254_16" function="internal">
        <lane id=":254_16_0" index="0" disallow="pedestrian tram rail_urban rail rail_electric rail_fast ship" speed="12.67" length="31.50" width="3.50" shape="524.54,933.76 528.46,935.85 533.30,942.21 534.79,950.59 532.94,960.98"/>
    </edge>
    <edge id=":254_10" function="internal">
        <lane id=":254_10_0" index="0" disallow="pedestrian tram rail_urban rail rail_electric rail_fast ship" speed="11.21" length="28.18" width="3.50" shape="526.25,958.91 528.09,950.04 527.51,943.07 524.54,938.00 519.16,934.82"/>
    </edge>
    <edge id=":254_11" function="internal">
        <lane id=":254_11_0" index="0" disallow="pedestrian tram rail_urban rail rail_electric rail_fast ship" speed="17.88" length="43.24" width="3.50" shape="526.25,958.91 539.16,917.64"/>
        <lane id=":254_11_1" index="1" disallow="pedestrian tram rail_urban rail rail_electric rail_fast ship" speed="17.88" length="43.24" width="2.50" shape="529.60,959.94 542.02,918.52"/>
    </edge>
    <edge id=":254_13" function="internal">
        <lane id=":254_13_0" index="0" disallow="pedestrian tram rail_urban rail rail_electric rail_fast ship" speed="12.89" length="5.44" width="3.50" shape="529.60,959.94 531.91,955.02"/>
    </edge>
    <edge id=":254_17" function="internal">
        <lane id=":254_17_0" index="0" disallow="pedestrian tram rail_urban rail rail_electric rail_fast ship" speed="12.89" length="33.16" width="3.50" shape="531.91,955.02 534.14,950.26 540.62,944.36 549.03,942.26 559.37,943.94"/>
    </edge>
    <edge id=":29#1_0" function="internal">
        <lane id=":29#1_0_0" index="0" disallow="pedestrian tram rail_urban rail rail_electric rail_fast ship" speed="17.88" length="3.01" width="3.57" shape="849.11,894.98 848.16,897.84"/>
    </edge>
    <edge id=":29#1_1" function="internal">
        <lane id=":29#1_1_0" index="0" disallow="pedestrian tram rail_urban rail rail_electric rail_fast ship" speed="17.88" length="3.24" width="3.50" shape="843.13,896.13 843.24,895.18 843.00,894.49 842.76,893.81 842.87,892.86"/>
        <lane id=":29#1_1_1" index="1" allow="emergency authority" speed="17.88" length="3.24" width="3.07" shape="845.63,896.98 845.82,896.09 845.81,895.45 845.79,894.81 845.98,893.92"/>
    </edge>
    <edge id=":29#2_0" function="internal">
        <lane id=":29#2_0_0" index="0" disallow="pedestrian tram rail_urban rail rail_electric rail_fast ship" speed="17.88" length="8.00" width="3.57" shape="840.81,919.55 838.25,927.13"/>
    </edge>
    <edge id=":29#2_1" function="internal">
        <lane id=":29#2_1_0" index="0" disallow="pedestrian tram rail_urban rail rail_electric rail_fast ship" speed="17.88" length="8.26" width="3.50" shape="834.90,926.00 835.41,923.63 835.34,921.92 835.27,920.21 835.78,917.85"/>
    </edge>
    <edge id=":293_0" function="internal">