<?xml version="1.0" encoding="UTF-8"?>

<!-- generated on 2024-01-29 10:21:10 by Eclipse SUMO netedit Version 1.19.0
-->

<routes xmlns:xsi="http://www.w3.org/2001/XMLSchema-instance" xsi:noNamespaceSchemaLocation="http://sumo.dlr.de/xsd/routes_file.xsd">
    <!-- Vehicles, persons and containers (sorted by depart) -->
    <trip id="0" depart="0.00" color="grey" from="-49#0" to="-49#0"/>
</routes>
