<?xml version="1.0" encoding="UTF-8"?>

<!-- generated on 2025-07-25 11:16:34 by Eclipse SUMO netedit Version 1.23.1
<neteditConfiguration xmlns:xsi="http://www.w3.org/2001/XMLSchema-instance" xsi:noNamespaceSchemaLocation="http://sumo.dlr.de/xsd/neteditConfiguration.xsd">

    <input>
        <sumocfg-file value="D:\Sumo2Unity\Scenario3\Sumo2Unity.sumocfg"/>
        <additional-files value="D:\Sumo2Unity\Scenario3\Sumo2Unity.Poly.xml"/>
        <route-files value="D:\Sumo2Unity\Scenario3\Sumo2Unity.rou.xml"/>
        <sumo-net-file value="D:\Sumo2Unity\Scenario3\Sumo2Unity.net.xml"/>
    </input>

    <output>
        <output-file value="D:\Sumo2Unity\Scenario3\Sumo2Unity.net.xml"/>
    </output>

    <processing>
        <geometry.min-radius.fix.railways value="false"/>
        <geometry.avoid-overlap value="false"/>
        <geometry.max-grade.fix value="false"/>
        <offset.disable-normalization value="true"/>
        <lefthand value="0"/>
    </processing>

    <junctions>
        <no-turnarounds value="true"/>
        <junctions.corner-detail value="5"/>
        <junctions.limit-turn-speed value="5.50"/>
        <rectangular-lane-cut value="0"/>
    </junctions>

    <pedestrian>
        <walkingareas value="0"/>
    </pedestrian>

    <netedit>
        <new-network value="false"/>
    </netedit>

</neteditConfiguration>
-->

<net version="1.20" junctionCornerDetail="5" limitTurnSpeed="5.50" avoidOverlap="0" xmlns:xsi="http://www.w3.org/2001/XMLSchema-instance" xsi:noNamespaceSchemaLocation="http://sumo.dlr.de/xsd/net_file.xsd">

    <location netOffset="0.00,0.00" convBoundary="-178.61,-95.44,160.15,97.82" origBoundary="-10000000000.00,-10000000000.00,10000000000.00,10000000000.00" projParameter="!"/>

    <edge id=":J1_0" function="internal">
        <lane id=":J1_0_0" index="0" allow="bicycle" speed="4.74" length="4.53" width="2.50" shape="-10.53,4.15 -11.75,4.31 -12.62,4.83 -13.16,5.71 -13.35,6.95"/>
    </edge>
    <edge id=":J1_1" function="internal">
        <lane id=":J1_1_0" index="0" allow="bicycle" speed="13.89" length="20.86" width="2.50" shape="-10.53,4.15 -31.37,3.92"/>
        <lane id=":J1_1_1" index="1" speed="13.89" length="20.86" shape="-10.49,1.30 -31.35,1.07"/>
        <lane id=":J1_1_2" index="2" speed="13.89" length="20.86" shape="-10.44,-1.89 -31.32,-2.13"/>
    </edge>
    <edge id=":J1_4" function="internal">
        <lane id=":J1_4_0" index="0" speed="9.26" length="4.89" shape="-10.44,-1.89 -15.27,-2.66"/>
    </edge>
    <edge id=":J1_20" function="internal">
        <lane id=":J1_20_0" index="0" speed="9.26" length="14.48" shape="-15.27,-2.66 -15.69,-2.72 -19.40,-5.03 -21.60,-8.82 -22.26,-14.09"/>
    </edge>
    <edge id=":J1_5" function="internal">
        <lane id=":J1_5_0" index="0" allow="bicycle" speed="4.70" length="4.44" width="2.50" shape="-13.01,-13.94 -12.86,-12.73 -12.36,-11.86 -11.51,-11.33 -10.31,-11.14"/>
    </edge>
    <edge id=":J1_6" function="internal">
        <lane id=":J1_6_0" index="0" allow="bicycle" speed="13.89" length="20.89" width="2.50" shape="-13.01,-13.94 -13.35,6.95"/>
        <lane id=":J1_6_1" index="1" speed="13.89" length="20.89" shape="-15.86,-13.98 -16.20,6.91"/>
        <lane id=":J1_6_2" index="2" speed="13.89" length="20.89" shape="-19.06,-14.03 -19.40,6.85"/>
    </edge>
    <edge id=":J1_9" function="internal">
        <lane id=":J1_9_0" index="0" speed="9.31" length="5.00" shape="-19.06,-14.03 -19.85,-9.10"/>
    </edge>
    <edge id=":J1_21" function="internal">
        <lane id=":J1_21_0" index="0" speed="9.31" length="14.46" shape="-19.85,-9.10 -19.90,-8.79 -22.22,-5.06 -26.03,-2.84 -31.32,-2.13"/>
    </edge>
    <edge id=":J1_10" function="internal">
        <lane id=":J1_10_0" index="0" allow="bicycle" speed="4.80" length="4.63" width="2.50" shape="-31.25,-11.38 -29.98,-11.54 -29.07,-12.07 -28.51,-12.95 -28.31,-14.18"/>
    </edge>
    <edge id=":J1_11" function="internal">
        <lane id=":J1_11_0" index="0" allow="bicycle" speed="13.89" length="20.93" width="2.50" shape="-31.25,-11.38 -10.31,-11.14"/>
        <lane id=":J1_11_1" index="1" speed="13.89" length="20.93" shape="-31.27,-8.53 -10.35,-8.29"/>
        <lane id=":J1_11_2" index="2" speed="13.89" length="20.93" shape="-31.30,-5.33 -10.40,-5.09"/>
    </edge>
    <edge id=":J1_14" function="internal">
        <lane id=":J1_14_0" index="0" speed="9.25" length="5.14" shape="-31.30,-5.33 -26.22,-4.56"/>
    </edge>
    <edge id=":J1_22" function="internal">
        <lane id=":J1_22_0" index="0" speed="9.25" length="14.32" shape="-26.22,-4.56 -26.02,-4.53 -22.28,-2.24 -20.07,1.56 -19.40,6.85"/>
    </edge>
    <edge id=":J1_15" function="internal">
        <lane id=":J1_15_0" index="0" allow="bicycle" speed="4.69" length="4.44" width="2.50" shape="-28.65,6.70 -28.80,5.49 -29.31,4.63 -30.16,4.10 -31.37,3.92"/>
    </edge>
    <edge id=":J1_16" function="internal">
        <lane id=":J1_16_0" index="0" allow="bicycle" speed="13.89" length="20.89" width="2.50" shape="-28.65,6.70 -28.31,-14.18"/>
        <lane id=":J1_16_1" index="1" speed="13.89" length="20.89" shape="-25.80,6.75 -25.46,-14.14"/>
        <lane id=":J1_16_2" index="2" speed="13.89" length="20.89" shape="-22.60,6.80 -22.26,-14.09"/>
    </edge>
    <edge id=":J1_19" function="internal">
        <lane id=":J1_19_0" index="0" speed="9.28" length="5.04" shape="-22.60,6.80 -21.81,1.82"/>
    </edge>
    <edge id=":J1_23" function="internal">
        <lane id=":J1_23_0" index="0" speed="9.28" length="14.39" shape="-21.81,1.82 -21.76,1.53 -19.45,-2.21 -15.66,-4.42 -10.40,-5.09"/>
    </edge>

    <edge id="-E0" from="J1" to="J0" priority="-1">
        <lane id="-E0_0" index="0" allow="bicycle" speed="13.89" length="147.30" width="2.50" shape="-31.37,3.92 -178.67,2.83"/>
        <lane id="-E0_1" index="1" speed="13.89" length="147.30" shape="-31.35,1.07 -178.65,-0.02"/>
        <lane id="-E0_2" index="2" speed="13.89" length="147.30" shape="-31.32,-2.13 -178.62,-3.22"/>
    </edge>
    <edge id="-E1" from="J2" to="J1" priority="-1">
        <lane id="-E1_0" index="0" allow="bicycle" speed="13.89" length="170.59" width="2.50" shape="160.04,6.70 -10.53,4.15"/>
        <lane id="-E1_1" index="1" speed="13.89" length="170.59" shape="160.08,3.85 -10.49,1.30"/>
        <lane id="-E1_2" index="2" speed="13.89" length="170.59" shape="160.13,0.65 -10.44,-1.89"/>
    </edge>
    <edge id="-E2" from="J1" to="J3" priority="-1">
        <lane id="-E2_0" index="0" allow="bicycle" speed="13.89" length="81.39" width="2.50" shape="-28.31,-14.18 -26.99,-95.56"/>
        <lane id="-E2_1" index="1" speed="13.89" length="81.39" shape="-25.46,-14.14 -24.14,-95.52"/>
        <lane id="-E2_2" index="2" speed="13.89" length="81.39" shape="-22.26,-14.09 -20.94,-95.47"/>
    </edge>
    <edge id="-E3" from="J4" to="J1" priority="-1">
        <lane id="-E3_0" index="0" allow="bicycle" speed="13.89" length="91.00" width="2.50" shape="-30.14,97.69 -28.65,6.70"/>
        <lane id="-E3_1" index="1" speed="13.89" length="91.00" shape="-27.29,97.74 -25.80,6.75"/>
        <lane id="-E3_2" index="2" speed="13.89" length="91.00" shape="-24.09,97.79 -22.60,6.80"/>
    </edge>
    <edge id="E0" from="J0" to="J1" priority="-1">
        <lane id="E0_0" index="0" allow="bicycle" speed="13.89" length="147.30" width="2.50" shape="-178.55,-12.47 -31.25,-11.38"/>
        <lane id="E0_1" index="1" speed="13.89" length="147.30" shape="-178.57,-9.62 -31.27,-8.53"/>
        <lane id="E0_2" index="2" speed="13.89" length="147.30" shape="-178.60,-6.42 -31.30,-5.33"/>
    </edge>
    <edge id="E1" from="J1" to="J2" priority="-1">
        <lane id="E1_0" index="0" allow="bicycle" speed="13.89" length="170.59" width="2.50" shape="-10.31,-11.14 160.26,-8.60"/>
        <lane id="E1_1" index="1" speed="13.89" length="170.59" shape="-10.35,-8.29 160.22,-5.75"/>
        <lane id="E1_2" index="2" speed="13.89" length="170.59" shape="-10.40,-5.09 160.17,-2.55"/>
    </edge>
    <edge id="E2" from="J3" to="J1" priority="-1">
        <lane id="E2_0" index="0" allow="bicycle" speed="13.89" length="81.39" width="2.50" shape="-11.69,-95.32 -13.01,-13.94"/>
        <lane id="E2_1" index="1" speed="13.89" length="81.39" shape="-14.54,-95.36 -15.86,-13.98"/>
        <lane id="E2_2" index="2" speed="13.89" length="81.39" shape="-17.74,-95.41 -19.06,-14.03"/>
    </edge>
    <edge id="E3" from="J1" to="J4" priority="-1">
        <lane id="E3_0" index="0" allow="bicycle" speed="13.89" length="91.00" width="2.50" shape="-13.35,6.95 -14.84,97.95"/>
        <lane id="E3_1" index="1" speed="13.89" length="91.00" shape="-16.20,6.91 -17.69,97.90"/>
        <lane id="E3_2" index="2" speed="13.89" length="91.00" shape="-19.40,6.85 -20.89,97.85"/>
    </edge>

    <tlLogic id="J1" type="static" programID="0" offset="0">
        <phase duration="42" state="rrrrrGGGGgrrrrrGGGGg"/>
        <phase duration="3"  state="rrrrryyyyyrrrrryyyyy"/>
        <phase duration="42" state="GGGGgrrrrrGGGGgrrrrr"/>
        <phase duration="3"  state="yyyyyrrrrryyyyyrrrrr"/>
    </tlLogic>

    <junction id="J0" type="dead_end" x="-178.61" y="-4.82" incLanes="-E0_0 -E0_1 -E0_2" intLanes="" shape="-178.61,-4.82 -178.68,4.08 -178.61,-4.82"/>
    <junction id="J1" type="traffic_light" x="-20.83" y="-3.65" incLanes="-E1_0 -E1_1 -E1_2 E2_0 E2_1 E2_2 E0_0 E0_1 E0_2 -E3_0 -E3_1 -E3_2" intLanes=":J1_0_0 :J1_1_0 :J1_1_1 :J1_1_2 :J1_20_0 :J1_5_0 :J1_6_0 :J1_6_1 :J1_6_2 :J1_21_0 :J1_10_0 :J1_11_0 :J1_11_1 :J1_11_2 :J1_22_0 :J1_15_0 :J1_16_0 :J1_16_1 :J1_16_2 :J1_23_0" shape="-10.55,5.40 -10.29,-12.39 -11.12,-12.57 -11.41,-12.79 -11.61,-13.08 -11.73,-13.46 -11.76,-13.92 -29.56,-14.20 -29.76,-13.32 -29.99,-13.02 -30.32,-12.80 -30.74,-12.67 -31.24,-12.63 -31.38,5.17 -30.55,5.34 -30.26,5.56 -30.05,5.85 -29.93,6.22 -29.90,6.68 -12.10,6.97 -11.92,6.09 -11.70,5.79 -11.40,5.57 -11.02,5.44">
        <request index="0"  response="00000000000001000000" foes="00000000000001000000" cont="0"/>
        <request index="1"  response="11111000000111000000" foes="11111100000111000000" cont="0"/>
        <request index="2"  response="11110000001111000000" foes="11110100001111000000" cont="0"/>
        <request index="3"  response="11110000001111000000" foes="11110100001111000000" cont="0"/>
        <request index="4"  response="11100011101111000000" foes="11100011101111000000" cont="1"/>
        <request index="5"  response="00000000000000000000" foes="00000000100000000000" cont="0"/>
        <request index="6"  response="00000000000000010000" foes="10000011100000011111" cont="0"/>
        <request index="7"  response="00000100000000010000" foes="10000111100000011110" cont="0"/>
        <request index="8"  response="00000100000000010000" foes="10000111100000011110" cont="0"/>
        <request index="9"  response="01110100000000010000" foes="01110111100000011100" cont="1"/>
        <request index="10" response="00010000000000000000" foes="00010000000000000000" cont="0"/>
        <request index="11" response="01110000001111100000" foes="01110000001111110000" cont="0"/>
        <request index="12" response="11110000001111000000" foes="11110000001111010000" cont="0"/>
        <request index="13" response="11110000001111000000" foes="11110000001111010000" cont="0"/>
        <request index="14" response="11110000001110001110" foes="11110000001110001110" cont="1"/>
        <request index="15" response="00000000000000000000" foes="00000000000000000010" cont="0"/>
        <request index="16" response="00000100000000000000" foes="00000111111000001110" cont="0"/>
        <request index="17" response="00000100000000010000" foes="00000111101000011110" cont="0"/>
        <request index="18" response="00000100000000010000" foes="00000111101000011110" cont="0"/>
        <request index="19" response="00000100000111010000" foes="00000111000111011110" cont="1"/>
    </junction>
    <junction id="J2" type="dead_end" x="160.15" y="-0.95" incLanes="E1_0 E1_1 E1_2" intLanes="" shape="160.15,-0.95 160.28,-9.85 160.15,-0.95"/>
    <junction id="J3" type="dead_end" x="-19.34" y="-95.44" incLanes="-E2_0 -E2_1 -E2_2" intLanes="" shape="-19.34,-95.44 -28.24,-95.58 -19.34,-95.44"/>
    <junction id="J4" type="dead_end" x="-22.49" y="97.82" incLanes="E3_0 E3_1 E3_2" intLanes="" shape="-22.49,97.82 -13.59,97.97 -22.49,97.82"/>

    <junction id=":J1_20_0" type="internal" x="-15.27" y="-2.66" incLanes=":J1_4_0 E0_0 E0_1 E0_2" intLanes=":J1_6_0 :J1_6_1 :J1_6_2 :J1_9_0 :J1_10_0 :J1_11_0 :J1_11_1 :J1_11_2 :J1_16_0 :J1_16_1 :J1_16_2 :J1_19_0"/>
    <junction id=":J1_21_0" type="internal" x="-19.85" y="-9.10" incLanes=":J1_9_0 -E3_0 -E3_1 -E3_2" intLanes=":J1_1_0 :J1_1_1 :J1_1_2 :J1_4_0 :J1_11_0 :J1_11_1 :J1_11_2 :J1_14_0 :J1_15_0 :J1_16_0 :J1_16_1 :J1_16_2"/>
    <junction id=":J1_22_0" type="internal" x="-26.22" y="-4.56" incLanes=":J1_14_0 -E1_0 -E1_1 -E1_2" intLanes=":J1_0_0 :J1_1_0 :J1_1_1 :J1_1_2 :J1_6_0 :J1_6_1 :J1_6_2 :J1_9_0 :J1_16_0 :J1_16_1 :J1_16_2 :J1_19_0"/>
    <junction id=":J1_23_0" type="internal" x="-21.81" y="1.82" incLanes=":J1_19_0 E2_0 E2_1 E2_2" intLanes=":J1_1_0 :J1_1_1 :J1_1_2 :J1_4_0 :J1_5_0 :J1_6_0 :J1_6_1 :J1_6_2 :J1_11_0 :J1_11_1 :J1_11_2 :J1_14_0"/>

    <connection from="-E1" to="E3" fromLane="0" toLane="0" via=":J1_0_0" tl="J1" linkIndex="0" dir="r" state="o"/>
    <connection from="-E1" to="-E0" fromLane="0" toLane="0" via=":J1_1_0" tl="J1" linkIndex="1" dir="s" state="o"/>
    <connection from="-E1" to="-E0" fromLane="1" toLane="1" via=":J1_1_1" tl="J1" linkIndex="2" dir="s" state="o"/>
    <connection from="-E1" to="-E0" fromLane="2" toLane="2" via=":J1_1_2" tl="J1" linkIndex="3" dir="s" state="o"/>
    <connection from="-E1" to="-E2" fromLane="2" toLane="2" via=":J1_4_0" tl="J1" linkIndex="4" dir="l" state="o"/>
    <connection from="-E3" to="-E0" fromLane="0" toLane="0" via=":J1_15_0" tl="J1" linkIndex="15" dir="r" state="O"/>
    <connection from="-E3" to="-E2" fromLane="0" toLane="0" via=":J1_16_0" tl="J1" linkIndex="16" dir="s" state="O"/>
    <connection from="-E3" to="-E2" fromLane="1" toLane="1" via=":J1_16_1" tl="J1" linkIndex="17" dir="s" state="O"/>
    <connection from="-E3" to="-E2" fromLane="2" toLane="2" via=":J1_16_2" tl="J1" linkIndex="18" dir="s" state="O"/>
    <connection from="-E3" to="E1" fromLane="2" toLane="2" via=":J1_19_0" tl="J1" linkIndex="19" dir="l" state="o"/>
    <connection from="E0" to="-E2" fromLane="0" toLane="0" via=":J1_10_0" tl="J1" linkIndex="10" dir="r" state="o"/>
    <connection from="E0" to="E1" fromLane="0" toLane="0" via=":J1_11_0" tl="J1" linkIndex="11" dir="s" state="o"/>
    <connection from="E0" to="E1" fromLane="1" toLane="1" via=":J1_11_1" tl="J1" linkIndex="12" dir="s" state="o"/>
    <connection from="E0" to="E1" fromLane="2" toLane="2" via=":J1_11_2" tl="J1" linkIndex="13" dir="s" state="o"/>
    <connection from="E0" to="E3" fromLane="2" toLane="2" via=":J1_14_0" tl="J1" linkIndex="14" dir="l" state="o"/>
    <connection from="E2" to="E1" fromLane="0" toLane="0" via=":J1_5_0" tl="J1" linkIndex="5" dir="r" state="O"/>
    <connection from="E2" to="E3" fromLane="0" toLane="0" via=":J1_6_0" tl="J1" linkIndex="6" dir="s" state="O"/>
    <connection from="E2" to="E3" fromLane="1" toLane="1" via=":J1_6_1" tl="J1" linkIndex="7" dir="s" state="O"/>
    <connection from="E2" to="E3" fromLane="2" toLane="2" via=":J1_6_2" tl="J1" linkIndex="8" dir="s" state="O"/>
    <connection from="E2" to="-E0" fromLane="2" toLane="2" via=":J1_9_0" tl="J1" linkIndex="9" dir="l" state="o"/>

    <connection from=":J1_0" to="E3" fromLane="0" toLane="0" dir="r" state="M"/>
    <connection from=":J1_1" to="-E0" fromLane="0" toLane="0" dir="s" state="M"/>
    <connection from=":J1_1" to="-E0" fromLane="1" toLane="1" dir="s" state="M"/>
    <connection from=":J1_1" to="-E0" fromLane="2" toLane="2" dir="s" state="M"/>
    <connection from=":J1_4" to="-E2" fromLane="0" toLane="2" via=":J1_20_0" dir="l" state="m"/>
    <connection from=":J1_20" to="-E2" fromLane="0" toLane="2" dir="l" state="M"/>
    <connection from=":J1_5" to="E1" fromLane="0" toLane="0" dir="r" state="M"/>
    <connection from=":J1_6" to="E3" fromLane="0" toLane="0" dir="s" state="M"/>
    <connection from=":J1_6" to="E3" fromLane="1" toLane="1" dir="s" state="M"/>
    <connection from=":J1_6" to="E3" fromLane="2" toLane="2" dir="s" state="M"/>
    <connection from=":J1_9" to="-E0" fromLane="0" toLane="2" via=":J1_21_0" dir="l" state="m"/>
    <connection from=":J1_21" to="-E0" fromLane="0" toLane="2" dir="l" state="M"/>
    <connection from=":J1_10" to="-E2" fromLane="0" toLane="0" dir="r" state="M"/>
    <connection from=":J1_11" to="E1" fromLane="0" toLane="0" dir="s" state="M"/>
    <connection from=":J1_11" to="E1" fromLane="1" toLane="1" dir="s" state="M"/>
    <connection from=":J1_11" to="E1" fromLane="2" toLane="2" dir="s" state="M"/>
    <connection from=":J1_14" to="E3" fromLane="0" toLane="2" via=":J1_22_0" dir="l" state="m"/>
    <connection from=":J1_22" to="E3" fromLane="0" toLane="2" dir="l" state="M"/>
    <connection from=":J1_15" to="-E0" fromLane="0" toLane="0" dir="r" state="M"/>
    <connection from=":J1_16" to="-E2" fromLane="0" toLane="0" dir="s" state="M"/>
    <connection from=":J1_16" to="-E2" fromLane="1" toLane="1" dir="s" state="M"/>
    <connection from=":J1_16" to="-E2" fromLane="2" toLane="2" dir="s" state="M"/>
    <connection from=":J1_19" to="E1" fromLane="0" toLane="2" via=":J1_23_0" dir="l" state="m"/>
    <connection from=":J1_23" to="E1" fromLane="0" toLane="2" dir="l" state="M"/>

</net>
