<?xml version="1.0" encoding="UTF-8"?>

<!-- generated on 2025-07-25 08:41:03 by Eclipse SUMO netedit Version 1.23.1
-->

<additional xmlns:xsi="http://www.w3.org/2001/XMLSchema-instance" xsi:noNamespaceSchemaLocation="http://sumo.dlr.de/xsd/additional_file.xsd">
    <!-- Shapes -->
    <poly id="po_0" type="terrain" color="red" fill="0" layer="0.00" shape="-343.017121,144.664750 -339.958902,-184.858271 323.292190,-174.919062 320.233972,212.327830 -344.928507,210.416443 -343.017121,134.725540"/>
    <poly id="po_1" type="roadside" color="122,122,122" fill="1" layer="0.00" shape="-178.821702,7.629906 -36.153562,8.602644 -32.748981,9.251135 -32.586858,12.007224 -33.832773,96.773500 -9.449004,96.989286 -9.241738,10.981712 -8.688078,7.881213 -7.248560,7.770481 159.366640,10.710241 159.690885,-14.580929 -6.032837,-15.383013 -8.195898,-15.050235 -9.859792,-16.214960 -7.295688,-94.669635 -33.073227,-95.318127 -33.235350,-17.337018 -34.208087,-15.715789 -38.423282,-15.229421 -178.659579,-16.688527 -178.821702,7.629906"/>
    <poly id="po_2" type="roadside" color="122,122,122" fill="1" layer="0.00" shape="-1.896509,63.110952 -1.680724,13.480273 126.927471,14.990772 127.143257,73.468659 -1.033367,75.194944 -1.680724,60.737311"/>
    <poly id="po_3" type="wood" color="154,110,110" fill="1" layer="0.00" shape="-2.543866,-28.166341 -2.112295,-89.881011 161.668947,-88.370513 161.237376,-22.771702 -2.759652,-28.166341"/>
</additional>
